*SPEF "ieee 1481-1999"
*DESIGN "adc_clkgen_with_edgedetect"
*DATE "11:11:11 Fri 11 11, 1111"
*VENDOR "OpenRCX"
*PROGRAM "Parallel Extraction"
*VERSION "1.0"
*DESIGN_FLOW "NAME_SCOPE LOCAL" "PIN_CAP NONE"
*DIVIDER /
*DELIMITER :
*BUS_DELIMITER []
*T_UNIT 1 NS
*C_UNIT 1 PF
*R_UNIT 1 OHM
*L_UNIT 1 HENRY

*NAME_MAP
*3 clk_comp
*4 clk_dig
*5 dlycontrol1[0]
*6 dlycontrol1[1]
*7 dlycontrol1[2]
*8 dlycontrol1[3]
*9 dlycontrol1[4]
*10 dlycontrol2[0]
*11 dlycontrol2[1]
*12 dlycontrol2[2]
*13 dlycontrol2[3]
*14 dlycontrol2[4]
*15 dlycontrol3[0]
*16 dlycontrol3[1]
*17 dlycontrol3[2]
*18 dlycontrol3[3]
*19 dlycontrol3[4]
*20 dlycontrol4[0]
*21 dlycontrol4[1]
*22 dlycontrol4[2]
*23 dlycontrol4[3]
*24 dlycontrol4[4]
*25 dlycontrol4[5]
*26 ena_in
*27 enable_dlycontrol
*28 ndecision_finish
*29 nsample_n
*30 nsample_n_buf
*31 nsample_p
*32 nsample_p_buf
*33 sample_n
*34 sample_n_buf
*35 sample_p
*36 sample_p_buf
*37 start_conv
*40 clkgen\._clk_dig_delayed_
*41 clkgen\._ndecision_finish_delayed_
*42 clkgen\._net_1_
*43 clkgen\.clk_comp
*44 clkgen\.clk_dig
*45 clkgen\.delay_155ns_1\._enable_dlycontrol_
*46 clkgen\.delay_155ns_1\.genblk1\[0\]\.dly_binary\._siga_\[0\]
*47 clkgen\.delay_155ns_1\.genblk1\[0\]\.dly_binary\._siga_\[1\]
*48 clkgen\.delay_155ns_1\.genblk1\[0\]\.dly_binary\.bypass
*49 clkgen\.delay_155ns_1\.genblk1\[0\]\.dly_binary\.in
*50 clkgen\.delay_155ns_1\.genblk1\[0\]\.dly_binary\.out
*51 clkgen\.delay_155ns_1\.genblk1\[1\]\.dly_binary\._siga_\[0\]
*52 clkgen\.delay_155ns_1\.genblk1\[1\]\.dly_binary\._siga_\[1\]
*53 clkgen\.delay_155ns_1\.genblk1\[1\]\.dly_binary\._siga_\[2\]
*54 clkgen\.delay_155ns_1\.genblk1\[1\]\.dly_binary\.bypass
*55 clkgen\.delay_155ns_1\.genblk1\[1\]\.dly_binary\.out
*56 clkgen\.delay_155ns_1\.genblk1\[2\]\.dly_binary\._siga_\[0\]
*57 clkgen\.delay_155ns_1\.genblk1\[2\]\.dly_binary\._siga_\[1\]
*58 clkgen\.delay_155ns_1\.genblk1\[2\]\.dly_binary\._siga_\[2\]
*59 clkgen\.delay_155ns_1\.genblk1\[2\]\.dly_binary\._siga_\[3\]
*60 clkgen\.delay_155ns_1\.genblk1\[2\]\.dly_binary\._siga_\[4\]
*61 clkgen\.delay_155ns_1\.genblk1\[2\]\.dly_binary\.bypass
*62 clkgen\.delay_155ns_1\.genblk1\[2\]\.dly_binary\.out
*63 clkgen\.delay_155ns_1\.genblk1\[3\]\.dly_binary\._siga_\[0\]
*64 clkgen\.delay_155ns_1\.genblk1\[3\]\.dly_binary\._siga_\[1\]
*65 clkgen\.delay_155ns_1\.genblk1\[3\]\.dly_binary\._siga_\[2\]
*66 clkgen\.delay_155ns_1\.genblk1\[3\]\.dly_binary\._siga_\[3\]
*67 clkgen\.delay_155ns_1\.genblk1\[3\]\.dly_binary\._siga_\[4\]
*68 clkgen\.delay_155ns_1\.genblk1\[3\]\.dly_binary\._siga_\[5\]
*69 clkgen\.delay_155ns_1\.genblk1\[3\]\.dly_binary\._siga_\[6\]
*70 clkgen\.delay_155ns_1\.genblk1\[3\]\.dly_binary\._siga_\[7\]
*71 clkgen\.delay_155ns_1\.genblk1\[3\]\.dly_binary\._siga_\[8\]
*72 clkgen\.delay_155ns_1\.genblk1\[3\]\.dly_binary\.bypass
*73 clkgen\.delay_155ns_1\.genblk1\[3\]\.dly_binary\.out
*74 clkgen\.delay_155ns_1\.genblk1\[4\]\.dly_binary\._siga_\[0\]
*75 clkgen\.delay_155ns_1\.genblk1\[4\]\.dly_binary\._siga_\[10\]
*76 clkgen\.delay_155ns_1\.genblk1\[4\]\.dly_binary\._siga_\[11\]
*77 clkgen\.delay_155ns_1\.genblk1\[4\]\.dly_binary\._siga_\[12\]
*78 clkgen\.delay_155ns_1\.genblk1\[4\]\.dly_binary\._siga_\[13\]
*79 clkgen\.delay_155ns_1\.genblk1\[4\]\.dly_binary\._siga_\[14\]
*80 clkgen\.delay_155ns_1\.genblk1\[4\]\.dly_binary\._siga_\[15\]
*81 clkgen\.delay_155ns_1\.genblk1\[4\]\.dly_binary\._siga_\[16\]
*82 clkgen\.delay_155ns_1\.genblk1\[4\]\.dly_binary\._siga_\[1\]
*83 clkgen\.delay_155ns_1\.genblk1\[4\]\.dly_binary\._siga_\[2\]
*84 clkgen\.delay_155ns_1\.genblk1\[4\]\.dly_binary\._siga_\[3\]
*85 clkgen\.delay_155ns_1\.genblk1\[4\]\.dly_binary\._siga_\[4\]
*86 clkgen\.delay_155ns_1\.genblk1\[4\]\.dly_binary\._siga_\[5\]
*87 clkgen\.delay_155ns_1\.genblk1\[4\]\.dly_binary\._siga_\[6\]
*88 clkgen\.delay_155ns_1\.genblk1\[4\]\.dly_binary\._siga_\[7\]
*89 clkgen\.delay_155ns_1\.genblk1\[4\]\.dly_binary\._siga_\[8\]
*90 clkgen\.delay_155ns_1\.genblk1\[4\]\.dly_binary\._siga_\[9\]
*91 clkgen\.delay_155ns_1\.genblk1\[4\]\.dly_binary\.bypass
*92 clkgen\.delay_155ns_2\._enable_dlycontrol_
*93 clkgen\.delay_155ns_2\.genblk1\[0\]\.dly_binary\._siga_\[0\]
*94 clkgen\.delay_155ns_2\.genblk1\[0\]\.dly_binary\._siga_\[1\]
*95 clkgen\.delay_155ns_2\.genblk1\[0\]\.dly_binary\.bypass
*96 clkgen\.delay_155ns_2\.genblk1\[0\]\.dly_binary\.out
*97 clkgen\.delay_155ns_2\.genblk1\[1\]\.dly_binary\._siga_\[0\]
*98 clkgen\.delay_155ns_2\.genblk1\[1\]\.dly_binary\._siga_\[1\]
*99 clkgen\.delay_155ns_2\.genblk1\[1\]\.dly_binary\._siga_\[2\]
*100 clkgen\.delay_155ns_2\.genblk1\[1\]\.dly_binary\.bypass
*101 clkgen\.delay_155ns_2\.genblk1\[1\]\.dly_binary\.out
*102 clkgen\.delay_155ns_2\.genblk1\[2\]\.dly_binary\._siga_\[0\]
*103 clkgen\.delay_155ns_2\.genblk1\[2\]\.dly_binary\._siga_\[1\]
*104 clkgen\.delay_155ns_2\.genblk1\[2\]\.dly_binary\._siga_\[2\]
*105 clkgen\.delay_155ns_2\.genblk1\[2\]\.dly_binary\._siga_\[3\]
*106 clkgen\.delay_155ns_2\.genblk1\[2\]\.dly_binary\._siga_\[4\]
*107 clkgen\.delay_155ns_2\.genblk1\[2\]\.dly_binary\.bypass
*108 clkgen\.delay_155ns_2\.genblk1\[2\]\.dly_binary\.out
*109 clkgen\.delay_155ns_2\.genblk1\[3\]\.dly_binary\._siga_\[0\]
*110 clkgen\.delay_155ns_2\.genblk1\[3\]\.dly_binary\._siga_\[1\]
*111 clkgen\.delay_155ns_2\.genblk1\[3\]\.dly_binary\._siga_\[2\]
*112 clkgen\.delay_155ns_2\.genblk1\[3\]\.dly_binary\._siga_\[3\]
*113 clkgen\.delay_155ns_2\.genblk1\[3\]\.dly_binary\._siga_\[4\]
*114 clkgen\.delay_155ns_2\.genblk1\[3\]\.dly_binary\._siga_\[5\]
*115 clkgen\.delay_155ns_2\.genblk1\[3\]\.dly_binary\._siga_\[6\]
*116 clkgen\.delay_155ns_2\.genblk1\[3\]\.dly_binary\._siga_\[7\]
*117 clkgen\.delay_155ns_2\.genblk1\[3\]\.dly_binary\._siga_\[8\]
*118 clkgen\.delay_155ns_2\.genblk1\[3\]\.dly_binary\.bypass
*119 clkgen\.delay_155ns_2\.genblk1\[3\]\.dly_binary\.out
*120 clkgen\.delay_155ns_2\.genblk1\[4\]\.dly_binary\._siga_\[0\]
*121 clkgen\.delay_155ns_2\.genblk1\[4\]\.dly_binary\._siga_\[10\]
*122 clkgen\.delay_155ns_2\.genblk1\[4\]\.dly_binary\._siga_\[11\]
*123 clkgen\.delay_155ns_2\.genblk1\[4\]\.dly_binary\._siga_\[12\]
*124 clkgen\.delay_155ns_2\.genblk1\[4\]\.dly_binary\._siga_\[13\]
*125 clkgen\.delay_155ns_2\.genblk1\[4\]\.dly_binary\._siga_\[14\]
*126 clkgen\.delay_155ns_2\.genblk1\[4\]\.dly_binary\._siga_\[15\]
*127 clkgen\.delay_155ns_2\.genblk1\[4\]\.dly_binary\._siga_\[16\]
*128 clkgen\.delay_155ns_2\.genblk1\[4\]\.dly_binary\._siga_\[1\]
*129 clkgen\.delay_155ns_2\.genblk1\[4\]\.dly_binary\._siga_\[2\]
*130 clkgen\.delay_155ns_2\.genblk1\[4\]\.dly_binary\._siga_\[3\]
*131 clkgen\.delay_155ns_2\.genblk1\[4\]\.dly_binary\._siga_\[4\]
*132 clkgen\.delay_155ns_2\.genblk1\[4\]\.dly_binary\._siga_\[5\]
*133 clkgen\.delay_155ns_2\.genblk1\[4\]\.dly_binary\._siga_\[6\]
*134 clkgen\.delay_155ns_2\.genblk1\[4\]\.dly_binary\._siga_\[7\]
*135 clkgen\.delay_155ns_2\.genblk1\[4\]\.dly_binary\._siga_\[8\]
*136 clkgen\.delay_155ns_2\.genblk1\[4\]\.dly_binary\._siga_\[9\]
*137 clkgen\.delay_155ns_2\.genblk1\[4\]\.dly_binary\.bypass
*138 clkgen\.delay_155ns_3\._enable_dlycontrol_
*139 clkgen\.delay_155ns_3\.genblk1\[0\]\.dly_binary\._siga_\[0\]
*140 clkgen\.delay_155ns_3\.genblk1\[0\]\.dly_binary\._siga_\[1\]
*141 clkgen\.delay_155ns_3\.genblk1\[0\]\.dly_binary\.bypass
*142 clkgen\.delay_155ns_3\.genblk1\[0\]\.dly_binary\.out
*143 clkgen\.delay_155ns_3\.genblk1\[1\]\.dly_binary\._siga_\[0\]
*144 clkgen\.delay_155ns_3\.genblk1\[1\]\.dly_binary\._siga_\[1\]
*145 clkgen\.delay_155ns_3\.genblk1\[1\]\.dly_binary\._siga_\[2\]
*146 clkgen\.delay_155ns_3\.genblk1\[1\]\.dly_binary\.bypass
*147 clkgen\.delay_155ns_3\.genblk1\[1\]\.dly_binary\.out
*148 clkgen\.delay_155ns_3\.genblk1\[2\]\.dly_binary\._siga_\[0\]
*149 clkgen\.delay_155ns_3\.genblk1\[2\]\.dly_binary\._siga_\[1\]
*150 clkgen\.delay_155ns_3\.genblk1\[2\]\.dly_binary\._siga_\[2\]
*151 clkgen\.delay_155ns_3\.genblk1\[2\]\.dly_binary\._siga_\[3\]
*152 clkgen\.delay_155ns_3\.genblk1\[2\]\.dly_binary\._siga_\[4\]
*153 clkgen\.delay_155ns_3\.genblk1\[2\]\.dly_binary\.bypass
*154 clkgen\.delay_155ns_3\.genblk1\[2\]\.dly_binary\.out
*155 clkgen\.delay_155ns_3\.genblk1\[3\]\.dly_binary\._siga_\[0\]
*156 clkgen\.delay_155ns_3\.genblk1\[3\]\.dly_binary\._siga_\[1\]
*157 clkgen\.delay_155ns_3\.genblk1\[3\]\.dly_binary\._siga_\[2\]
*158 clkgen\.delay_155ns_3\.genblk1\[3\]\.dly_binary\._siga_\[3\]
*159 clkgen\.delay_155ns_3\.genblk1\[3\]\.dly_binary\._siga_\[4\]
*160 clkgen\.delay_155ns_3\.genblk1\[3\]\.dly_binary\._siga_\[5\]
*161 clkgen\.delay_155ns_3\.genblk1\[3\]\.dly_binary\._siga_\[6\]
*162 clkgen\.delay_155ns_3\.genblk1\[3\]\.dly_binary\._siga_\[7\]
*163 clkgen\.delay_155ns_3\.genblk1\[3\]\.dly_binary\._siga_\[8\]
*164 clkgen\.delay_155ns_3\.genblk1\[3\]\.dly_binary\.bypass
*165 clkgen\.delay_155ns_3\.genblk1\[3\]\.dly_binary\.out
*166 clkgen\.delay_155ns_3\.genblk1\[4\]\.dly_binary\._siga_\[0\]
*167 clkgen\.delay_155ns_3\.genblk1\[4\]\.dly_binary\._siga_\[10\]
*168 clkgen\.delay_155ns_3\.genblk1\[4\]\.dly_binary\._siga_\[11\]
*169 clkgen\.delay_155ns_3\.genblk1\[4\]\.dly_binary\._siga_\[12\]
*170 clkgen\.delay_155ns_3\.genblk1\[4\]\.dly_binary\._siga_\[13\]
*171 clkgen\.delay_155ns_3\.genblk1\[4\]\.dly_binary\._siga_\[14\]
*172 clkgen\.delay_155ns_3\.genblk1\[4\]\.dly_binary\._siga_\[15\]
*173 clkgen\.delay_155ns_3\.genblk1\[4\]\.dly_binary\._siga_\[16\]
*174 clkgen\.delay_155ns_3\.genblk1\[4\]\.dly_binary\._siga_\[1\]
*175 clkgen\.delay_155ns_3\.genblk1\[4\]\.dly_binary\._siga_\[2\]
*176 clkgen\.delay_155ns_3\.genblk1\[4\]\.dly_binary\._siga_\[3\]
*177 clkgen\.delay_155ns_3\.genblk1\[4\]\.dly_binary\._siga_\[4\]
*178 clkgen\.delay_155ns_3\.genblk1\[4\]\.dly_binary\._siga_\[5\]
*179 clkgen\.delay_155ns_3\.genblk1\[4\]\.dly_binary\._siga_\[6\]
*180 clkgen\.delay_155ns_3\.genblk1\[4\]\.dly_binary\._siga_\[7\]
*181 clkgen\.delay_155ns_3\.genblk1\[4\]\.dly_binary\._siga_\[8\]
*182 clkgen\.delay_155ns_3\.genblk1\[4\]\.dly_binary\._siga_\[9\]
*183 clkgen\.delay_155ns_3\.genblk1\[4\]\.dly_binary\.bypass
*184 clkgen\.enable_loop
*185 edgedetect\._start_conv_delayed_
*186 edgedetect\._start_conv_edge_
*187 edgedetect\.dly_315ns_1\._enable_dlycontrol_
*188 edgedetect\.dly_315ns_1\.genblk1\[0\]\.dly_binary\._siga_\[0\]
*189 edgedetect\.dly_315ns_1\.genblk1\[0\]\.dly_binary\._siga_\[1\]
*190 edgedetect\.dly_315ns_1\.genblk1\[0\]\.dly_binary\.bypass
*191 edgedetect\.dly_315ns_1\.genblk1\[0\]\.dly_binary\.in
*192 edgedetect\.dly_315ns_1\.genblk1\[0\]\.dly_binary\.out
*193 edgedetect\.dly_315ns_1\.genblk1\[1\]\.dly_binary\._siga_\[0\]
*194 edgedetect\.dly_315ns_1\.genblk1\[1\]\.dly_binary\._siga_\[1\]
*195 edgedetect\.dly_315ns_1\.genblk1\[1\]\.dly_binary\._siga_\[2\]
*196 edgedetect\.dly_315ns_1\.genblk1\[1\]\.dly_binary\.bypass
*197 edgedetect\.dly_315ns_1\.genblk1\[1\]\.dly_binary\.out
*198 edgedetect\.dly_315ns_1\.genblk1\[2\]\.dly_binary\._siga_\[0\]
*199 edgedetect\.dly_315ns_1\.genblk1\[2\]\.dly_binary\._siga_\[1\]
*200 edgedetect\.dly_315ns_1\.genblk1\[2\]\.dly_binary\._siga_\[2\]
*201 edgedetect\.dly_315ns_1\.genblk1\[2\]\.dly_binary\._siga_\[3\]
*202 edgedetect\.dly_315ns_1\.genblk1\[2\]\.dly_binary\._siga_\[4\]
*203 edgedetect\.dly_315ns_1\.genblk1\[2\]\.dly_binary\.bypass
*204 edgedetect\.dly_315ns_1\.genblk1\[2\]\.dly_binary\.out
*205 edgedetect\.dly_315ns_1\.genblk1\[3\]\.dly_binary\._siga_\[0\]
*206 edgedetect\.dly_315ns_1\.genblk1\[3\]\.dly_binary\._siga_\[1\]
*207 edgedetect\.dly_315ns_1\.genblk1\[3\]\.dly_binary\._siga_\[2\]
*208 edgedetect\.dly_315ns_1\.genblk1\[3\]\.dly_binary\._siga_\[3\]
*209 edgedetect\.dly_315ns_1\.genblk1\[3\]\.dly_binary\._siga_\[4\]
*210 edgedetect\.dly_315ns_1\.genblk1\[3\]\.dly_binary\._siga_\[5\]
*211 edgedetect\.dly_315ns_1\.genblk1\[3\]\.dly_binary\._siga_\[6\]
*212 edgedetect\.dly_315ns_1\.genblk1\[3\]\.dly_binary\._siga_\[7\]
*213 edgedetect\.dly_315ns_1\.genblk1\[3\]\.dly_binary\._siga_\[8\]
*214 edgedetect\.dly_315ns_1\.genblk1\[3\]\.dly_binary\.bypass
*215 edgedetect\.dly_315ns_1\.genblk1\[3\]\.dly_binary\.out
*216 edgedetect\.dly_315ns_1\.genblk1\[4\]\.dly_binary\._siga_\[0\]
*217 edgedetect\.dly_315ns_1\.genblk1\[4\]\.dly_binary\._siga_\[10\]
*218 edgedetect\.dly_315ns_1\.genblk1\[4\]\.dly_binary\._siga_\[11\]
*219 edgedetect\.dly_315ns_1\.genblk1\[4\]\.dly_binary\._siga_\[12\]
*220 edgedetect\.dly_315ns_1\.genblk1\[4\]\.dly_binary\._siga_\[13\]
*221 edgedetect\.dly_315ns_1\.genblk1\[4\]\.dly_binary\._siga_\[14\]
*222 edgedetect\.dly_315ns_1\.genblk1\[4\]\.dly_binary\._siga_\[15\]
*223 edgedetect\.dly_315ns_1\.genblk1\[4\]\.dly_binary\._siga_\[16\]
*224 edgedetect\.dly_315ns_1\.genblk1\[4\]\.dly_binary\._siga_\[1\]
*225 edgedetect\.dly_315ns_1\.genblk1\[4\]\.dly_binary\._siga_\[2\]
*226 edgedetect\.dly_315ns_1\.genblk1\[4\]\.dly_binary\._siga_\[3\]
*227 edgedetect\.dly_315ns_1\.genblk1\[4\]\.dly_binary\._siga_\[4\]
*228 edgedetect\.dly_315ns_1\.genblk1\[4\]\.dly_binary\._siga_\[5\]
*229 edgedetect\.dly_315ns_1\.genblk1\[4\]\.dly_binary\._siga_\[6\]
*230 edgedetect\.dly_315ns_1\.genblk1\[4\]\.dly_binary\._siga_\[7\]
*231 edgedetect\.dly_315ns_1\.genblk1\[4\]\.dly_binary\._siga_\[8\]
*232 edgedetect\.dly_315ns_1\.genblk1\[4\]\.dly_binary\._siga_\[9\]
*233 edgedetect\.dly_315ns_1\.genblk1\[4\]\.dly_binary\.bypass
*234 edgedetect\.dly_315ns_1\.genblk1\[4\]\.dly_binary\.out
*235 edgedetect\.dly_315ns_1\.genblk1\[5\]\.dly_binary\._siga_\[0\]
*236 edgedetect\.dly_315ns_1\.genblk1\[5\]\.dly_binary\._siga_\[10\]
*237 edgedetect\.dly_315ns_1\.genblk1\[5\]\.dly_binary\._siga_\[11\]
*238 edgedetect\.dly_315ns_1\.genblk1\[5\]\.dly_binary\._siga_\[12\]
*239 edgedetect\.dly_315ns_1\.genblk1\[5\]\.dly_binary\._siga_\[13\]
*240 edgedetect\.dly_315ns_1\.genblk1\[5\]\.dly_binary\._siga_\[14\]
*241 edgedetect\.dly_315ns_1\.genblk1\[5\]\.dly_binary\._siga_\[15\]
*242 edgedetect\.dly_315ns_1\.genblk1\[5\]\.dly_binary\._siga_\[16\]
*243 edgedetect\.dly_315ns_1\.genblk1\[5\]\.dly_binary\._siga_\[17\]
*244 edgedetect\.dly_315ns_1\.genblk1\[5\]\.dly_binary\._siga_\[18\]
*245 edgedetect\.dly_315ns_1\.genblk1\[5\]\.dly_binary\._siga_\[19\]
*246 edgedetect\.dly_315ns_1\.genblk1\[5\]\.dly_binary\._siga_\[1\]
*247 edgedetect\.dly_315ns_1\.genblk1\[5\]\.dly_binary\._siga_\[20\]
*248 edgedetect\.dly_315ns_1\.genblk1\[5\]\.dly_binary\._siga_\[21\]
*249 edgedetect\.dly_315ns_1\.genblk1\[5\]\.dly_binary\._siga_\[22\]
*250 edgedetect\.dly_315ns_1\.genblk1\[5\]\.dly_binary\._siga_\[23\]
*251 edgedetect\.dly_315ns_1\.genblk1\[5\]\.dly_binary\._siga_\[24\]
*252 edgedetect\.dly_315ns_1\.genblk1\[5\]\.dly_binary\._siga_\[25\]
*253 edgedetect\.dly_315ns_1\.genblk1\[5\]\.dly_binary\._siga_\[26\]
*254 edgedetect\.dly_315ns_1\.genblk1\[5\]\.dly_binary\._siga_\[27\]
*255 edgedetect\.dly_315ns_1\.genblk1\[5\]\.dly_binary\._siga_\[28\]
*256 edgedetect\.dly_315ns_1\.genblk1\[5\]\.dly_binary\._siga_\[29\]
*257 edgedetect\.dly_315ns_1\.genblk1\[5\]\.dly_binary\._siga_\[2\]
*258 edgedetect\.dly_315ns_1\.genblk1\[5\]\.dly_binary\._siga_\[30\]
*259 edgedetect\.dly_315ns_1\.genblk1\[5\]\.dly_binary\._siga_\[31\]
*260 edgedetect\.dly_315ns_1\.genblk1\[5\]\.dly_binary\._siga_\[32\]
*261 edgedetect\.dly_315ns_1\.genblk1\[5\]\.dly_binary\._siga_\[3\]
*262 edgedetect\.dly_315ns_1\.genblk1\[5\]\.dly_binary\._siga_\[4\]
*263 edgedetect\.dly_315ns_1\.genblk1\[5\]\.dly_binary\._siga_\[5\]
*264 edgedetect\.dly_315ns_1\.genblk1\[5\]\.dly_binary\._siga_\[6\]
*265 edgedetect\.dly_315ns_1\.genblk1\[5\]\.dly_binary\._siga_\[7\]
*266 edgedetect\.dly_315ns_1\.genblk1\[5\]\.dly_binary\._siga_\[8\]
*267 edgedetect\.dly_315ns_1\.genblk1\[5\]\.dly_binary\._siga_\[9\]
*268 edgedetect\.dly_315ns_1\.genblk1\[5\]\.dly_binary\.bypass
*269 edgedetect\.ena_in
*270 ANTENNA_clkgen\.delay_155ns_1\.enablebuffer_A
*271 ANTENNA_clkgen\.delay_155ns_1\.genblk1\[0\]\.bypass_enable_B
*272 ANTENNA_clkgen\.delay_155ns_1\.genblk1\[1\]\.bypass_enable_B
*273 ANTENNA_clkgen\.delay_155ns_1\.genblk1\[2\]\.bypass_enable_B
*274 ANTENNA_clkgen\.delay_155ns_1\.genblk1\[3\]\.bypass_enable_B
*275 ANTENNA_clkgen\.delay_155ns_1\.genblk1\[4\]\.bypass_enable_B
*276 ANTENNA_clkgen\.delay_155ns_1\.genblk1\[4\]\.dly_binary\.out_mux_A0
*277 ANTENNA_clkgen\.delay_155ns_2\.enablebuffer_A
*278 ANTENNA_clkgen\.delay_155ns_2\.genblk1\[0\]\.bypass_enable_B
*279 ANTENNA_clkgen\.delay_155ns_2\.genblk1\[1\]\.bypass_enable_B
*280 ANTENNA_clkgen\.delay_155ns_2\.genblk1\[2\]\.bypass_enable_B
*281 ANTENNA_clkgen\.delay_155ns_2\.genblk1\[3\]\.bypass_enable_B
*282 ANTENNA_clkgen\.delay_155ns_2\.genblk1\[4\]\.bypass_enable_B
*283 ANTENNA_clkgen\.delay_155ns_2\.genblk1\[4\]\.dly_binary\.out_mux_A0
*284 ANTENNA_clkgen\.delay_155ns_3\.enablebuffer_A
*285 ANTENNA_clkgen\.delay_155ns_3\.genblk1\[0\]\.bypass_enable_A
*286 ANTENNA_clkgen\.delay_155ns_3\.genblk1\[0\]\.bypass_enable_B
*287 ANTENNA_clkgen\.delay_155ns_3\.genblk1\[1\]\.bypass_enable_A
*288 ANTENNA_clkgen\.delay_155ns_3\.genblk1\[1\]\.bypass_enable_B
*289 ANTENNA_clkgen\.delay_155ns_3\.genblk1\[2\]\.bypass_enable_A
*290 ANTENNA_clkgen\.delay_155ns_3\.genblk1\[2\]\.bypass_enable_B
*291 ANTENNA_clkgen\.delay_155ns_3\.genblk1\[3\]\.bypass_enable_A
*292 ANTENNA_clkgen\.delay_155ns_3\.genblk1\[3\]\.bypass_enable_B
*293 ANTENNA_clkgen\.delay_155ns_3\.genblk1\[4\]\.bypass_enable_A
*294 ANTENNA_clkgen\.delay_155ns_3\.genblk1\[4\]\.bypass_enable_B
*295 ANTENNA_edgedetect\.dly_315ns_1\.enablebuffer_A
*296 ANTENNA_edgedetect\.dly_315ns_1\.genblk1\[0\]\.bypass_enable_A
*297 ANTENNA_edgedetect\.dly_315ns_1\.genblk1\[0\]\.bypass_enable_B
*298 ANTENNA_edgedetect\.dly_315ns_1\.genblk1\[1\]\.bypass_enable_A
*299 ANTENNA_edgedetect\.dly_315ns_1\.genblk1\[1\]\.bypass_enable_B
*300 ANTENNA_edgedetect\.dly_315ns_1\.genblk1\[2\]\.bypass_enable_A
*301 ANTENNA_edgedetect\.dly_315ns_1\.genblk1\[2\]\.bypass_enable_B
*302 ANTENNA_edgedetect\.dly_315ns_1\.genblk1\[3\]\.bypass_enable_A
*303 ANTENNA_edgedetect\.dly_315ns_1\.genblk1\[3\]\.bypass_enable_B
*304 ANTENNA_edgedetect\.dly_315ns_1\.genblk1\[3\]\.dly_binary\.and_bypass_switch_A_N
*305 ANTENNA_edgedetect\.dly_315ns_1\.genblk1\[3\]\.dly_binary\.out_mux_S
*306 ANTENNA_edgedetect\.dly_315ns_1\.genblk1\[4\]\.bypass_enable_A
*307 ANTENNA_edgedetect\.dly_315ns_1\.genblk1\[4\]\.bypass_enable_B
*308 ANTENNA_edgedetect\.dly_315ns_1\.genblk1\[4\]\.dly_binary\.and_bypass_switch_A_N
*309 ANTENNA_edgedetect\.dly_315ns_1\.genblk1\[4\]\.dly_binary\.out_mux_A0
*310 ANTENNA_edgedetect\.dly_315ns_1\.genblk1\[4\]\.dly_binary\.out_mux_S
*311 ANTENNA_edgedetect\.dly_315ns_1\.genblk1\[5\]\.bypass_enable_A
*312 ANTENNA_edgedetect\.dly_315ns_1\.genblk1\[5\]\.bypass_enable_B
*313 ANTENNA_edgedetect\.dly_315ns_1\.genblk1\[5\]\.dly_binary\.and_bypass_switch_A_N
*314 ANTENNA_edgedetect\.dly_315ns_1\.genblk1\[5\]\.dly_binary\.out_mux_A0
*315 ANTENNA_edgedetect\.dly_315ns_1\.genblk1\[5\]\.dly_binary\.out_mux_S
*316 ANTENNA_edgedetect\.or1_A
*317 ANTENNA_inbuf_1_A
*318 ANTENNA_inbuf_2_A
*319 ANTENNA_inbuf_3_A
*320 ANTENNA_outbuf_3_A
*321 ANTENNA_outbuf_4_A
*322 ANTENNA_outbuf_5_A
*323 ANTENNA_outbuf_6_A
*324 FILLER_0_10
*325 FILLER_0_122
*326 FILLER_0_125
*327 FILLER_0_152
*328 FILLER_0_156
*329 FILLER_0_183
*330 FILLER_0_187
*331 FILLER_0_20
*332 FILLER_0_214
*333 FILLER_0_218
*334 FILLER_0_226
*335 FILLER_0_232
*336 FILLER_0_238
*337 FILLER_0_244
*338 FILLER_0_249
*339 FILLER_0_253
*340 FILLER_0_265
*341 FILLER_0_277
*342 FILLER_0_280
*343 FILLER_0_29
*344 FILLER_0_292
*345 FILLER_0_3
*346 FILLER_0_304
*347 FILLER_0_311
*348 FILLER_0_319
*349 FILLER_0_32
*350 FILLER_0_60
*351 FILLER_0_63
*352 FILLER_0_91
*353 FILLER_0_94
*354 FILLER_10_121
*355 FILLER_10_127
*356 FILLER_10_153
*357 FILLER_10_156
*358 FILLER_10_16
*359 FILLER_10_163
*360 FILLER_10_171
*361 FILLER_10_197
*362 FILLER_10_203
*363 FILLER_10_209
*364 FILLER_10_215
*365 FILLER_10_218
*366 FILLER_10_245
*367 FILLER_10_274
*368 FILLER_10_278
*369 FILLER_10_280
*370 FILLER_10_29
*371 FILLER_10_3
*372 FILLER_10_307
*373 FILLER_10_319
*374 FILLER_10_32
*375 FILLER_10_60
*376 FILLER_10_89
*377 FILLER_10_9
*378 FILLER_10_94
*379 FILLER_11_122
*380 FILLER_11_125
*381 FILLER_11_152
*382 FILLER_11_156
*383 FILLER_11_182
*384 FILLER_11_187
*385 FILLER_11_19
*386 FILLER_11_214
*387 FILLER_11_243
*388 FILLER_11_247
*389 FILLER_11_249
*390 FILLER_11_253
*391 FILLER_11_282
*392 FILLER_11_288
*393 FILLER_11_29
*394 FILLER_11_3
*395 FILLER_11_300
*396 FILLER_11_308
*397 FILLER_11_311
*398 FILLER_11_319
*399 FILLER_11_58
*400 FILLER_11_63
*401 FILLER_11_67
*402 FILLER_11_9
*403 FILLER_11_93
*404 FILLER_12_100
*405 FILLER_12_107
*406 FILLER_12_120
*407 FILLER_12_149
*408 FILLER_12_156
*409 FILLER_12_163
*410 FILLER_12_169
*411 FILLER_12_17
*412 FILLER_12_200
*413 FILLER_12_206
*414 FILLER_12_212
*415 FILLER_12_216
*416 FILLER_12_218
*417 FILLER_12_245
*418 FILLER_12_251
*419 FILLER_12_277
*420 FILLER_12_280
*421 FILLER_12_29
*422 FILLER_12_3
*423 FILLER_12_317
*424 FILLER_12_32
*425 FILLER_12_36
*426 FILLER_12_62
*427 FILLER_12_7
*428 FILLER_12_91
*429 FILLER_12_94
*430 FILLER_13_122
*431 FILLER_13_125
*432 FILLER_13_129
*433 FILLER_13_155
*434 FILLER_13_17
*435 FILLER_13_184
*436 FILLER_13_187
*437 FILLER_13_214
*438 FILLER_13_220
*439 FILLER_13_246
*440 FILLER_13_249
*441 FILLER_13_276
*442 FILLER_13_282
*443 FILLER_13_3
*444 FILLER_13_308
*445 FILLER_13_311
*446 FILLER_13_319
*447 FILLER_13_46
*448 FILLER_13_59
*449 FILLER_13_63
*450 FILLER_13_67
*451 FILLER_13_7
*452 FILLER_13_93
*453 FILLER_14_100
*454 FILLER_14_113
*455 FILLER_14_14
*456 FILLER_14_142
*457 FILLER_14_151
*458 FILLER_14_156
*459 FILLER_14_163
*460 FILLER_14_169
*461 FILLER_14_195
*462 FILLER_14_204
*463 FILLER_14_210
*464 FILLER_14_216
*465 FILLER_14_218
*466 FILLER_14_245
*467 FILLER_14_27
*468 FILLER_14_274
*469 FILLER_14_278
*470 FILLER_14_280
*471 FILLER_14_3
*472 FILLER_14_307
*473 FILLER_14_319
*474 FILLER_14_32
*475 FILLER_14_43
*476 FILLER_14_52
*477 FILLER_14_7
*478 FILLER_14_81
*479 FILLER_14_91
*480 FILLER_14_94
*481 FILLER_15_122
*482 FILLER_15_125
*483 FILLER_15_133
*484 FILLER_15_143
*485 FILLER_15_172
*486 FILLER_15_181
*487 FILLER_15_185
*488 FILLER_15_187
*489 FILLER_15_193
*490 FILLER_15_219
*491 FILLER_15_225
*492 FILLER_15_231
*493 FILLER_15_237
*494 FILLER_15_243
*495 FILLER_15_247
*496 FILLER_15_249
*497 FILLER_15_280
*498 FILLER_15_286
*499 FILLER_15_292
*500 FILLER_15_298
*501 FILLER_15_3
*502 FILLER_15_304
*503 FILLER_15_31
*504 FILLER_15_311
*505 FILLER_15_319
*506 FILLER_15_60
*507 FILLER_15_63
*508 FILLER_15_67
*509 FILLER_15_93
*510 FILLER_16_124
*511 FILLER_16_153
*512 FILLER_16_156
*513 FILLER_16_16
*514 FILLER_16_163
*515 FILLER_16_172
*516 FILLER_16_176
*517 FILLER_16_202
*518 FILLER_16_211
*519 FILLER_16_218
*520 FILLER_16_245
*521 FILLER_16_274
*522 FILLER_16_278
*523 FILLER_16_280
*524 FILLER_16_29
*525 FILLER_16_3
*526 FILLER_16_307
*527 FILLER_16_319
*528 FILLER_16_32
*529 FILLER_16_36
*530 FILLER_16_62
*531 FILLER_16_9
*532 FILLER_16_91
*533 FILLER_16_94
*534 FILLER_16_98
*535 FILLER_17_121
*536 FILLER_17_125
*537 FILLER_17_133
*538 FILLER_17_143
*539 FILLER_17_149
*540 FILLER_17_178
*541 FILLER_17_184
*542 FILLER_17_187
*543 FILLER_17_214
*544 FILLER_17_243
*545 FILLER_17_247
*546 FILLER_17_249
*547 FILLER_17_276
*548 FILLER_17_3
*549 FILLER_17_305
*550 FILLER_17_309
*551 FILLER_17_31
*552 FILLER_17_311
*553 FILLER_17_315
*554 FILLER_17_319
*555 FILLER_17_60
*556 FILLER_17_63
*557 FILLER_17_92
*558 FILLER_18_124
*559 FILLER_18_153
*560 FILLER_18_156
*561 FILLER_18_16
*562 FILLER_18_160
*563 FILLER_18_164
*564 FILLER_18_190
*565 FILLER_18_199
*566 FILLER_18_208
*567 FILLER_18_214
*568 FILLER_18_218
*569 FILLER_18_249
*570 FILLER_18_255
*571 FILLER_18_261
*572 FILLER_18_267
*573 FILLER_18_277
*574 FILLER_18_280
*575 FILLER_18_284
*576 FILLER_18_29
*577 FILLER_18_3
*578 FILLER_18_315
*579 FILLER_18_319
*580 FILLER_18_32
*581 FILLER_18_36
*582 FILLER_18_62
*583 FILLER_18_91
*584 FILLER_18_94
*585 FILLER_18_98
*586 FILLER_19_122
*587 FILLER_19_125
*588 FILLER_19_129
*589 FILLER_19_155
*590 FILLER_19_184
*591 FILLER_19_187
*592 FILLER_19_214
*593 FILLER_19_243
*594 FILLER_19_247
*595 FILLER_19_249
*596 FILLER_19_276
*597 FILLER_19_3
*598 FILLER_19_305
*599 FILLER_19_309
*600 FILLER_19_31
*601 FILLER_19_311
*602 FILLER_19_315
*603 FILLER_19_319
*604 FILLER_19_60
*605 FILLER_19_63
*606 FILLER_19_67
*607 FILLER_19_93
*608 FILLER_1_118
*609 FILLER_1_125
*610 FILLER_1_133
*611 FILLER_1_141
*612 FILLER_1_167
*613 FILLER_1_176
*614 FILLER_1_182
*615 FILLER_1_187
*616 FILLER_1_214
*617 FILLER_1_243
*618 FILLER_1_247
*619 FILLER_1_249
*620 FILLER_1_261
*621 FILLER_1_273
*622 FILLER_1_285
*623 FILLER_1_297
*624 FILLER_1_3
*625 FILLER_1_309
*626 FILLER_1_31
*627 FILLER_1_311
*628 FILLER_1_319
*629 FILLER_1_60
*630 FILLER_1_63
*631 FILLER_1_71
*632 FILLER_1_81
*633 FILLER_1_88
*634 FILLER_1_92
*635 FILLER_20_122
*636 FILLER_20_125
*637 FILLER_20_153
*638 FILLER_20_156
*639 FILLER_20_16
*640 FILLER_20_183
*641 FILLER_20_187
*642 FILLER_20_214
*643 FILLER_20_218
*644 FILLER_20_245
*645 FILLER_20_249
*646 FILLER_20_276
*647 FILLER_20_280
*648 FILLER_20_29
*649 FILLER_20_3
*650 FILLER_20_307
*651 FILLER_20_311
*652 FILLER_20_315
*653 FILLER_20_319
*654 FILLER_20_32
*655 FILLER_20_60
*656 FILLER_20_63
*657 FILLER_20_91
*658 FILLER_20_94
*659 FILLER_2_121
*660 FILLER_2_127
*661 FILLER_2_153
*662 FILLER_2_156
*663 FILLER_2_16
*664 FILLER_2_183
*665 FILLER_2_212
*666 FILLER_2_216
*667 FILLER_2_218
*668 FILLER_2_222
*669 FILLER_2_228
*670 FILLER_2_234
*671 FILLER_2_246
*672 FILLER_2_258
*673 FILLER_2_270
*674 FILLER_2_278
*675 FILLER_2_280
*676 FILLER_2_29
*677 FILLER_2_292
*678 FILLER_2_3
*679 FILLER_2_304
*680 FILLER_2_316
*681 FILLER_2_32
*682 FILLER_2_36
*683 FILLER_2_62
*684 FILLER_2_9
*685 FILLER_2_91
*686 FILLER_2_94
*687 FILLER_3_122
*688 FILLER_3_125
*689 FILLER_3_152
*690 FILLER_3_158
*691 FILLER_3_184
*692 FILLER_3_187
*693 FILLER_3_214
*694 FILLER_3_243
*695 FILLER_3_247
*696 FILLER_3_249
*697 FILLER_3_261
*698 FILLER_3_273
*699 FILLER_3_285
*700 FILLER_3_297
*701 FILLER_3_3
*702 FILLER_3_309
*703 FILLER_3_31
*704 FILLER_3_311
*705 FILLER_3_319
*706 FILLER_3_60
*707 FILLER_3_63
*708 FILLER_3_67
*709 FILLER_3_93
*710 FILLER_4_102
*711 FILLER_4_108
*712 FILLER_4_137
*713 FILLER_4_146
*714 FILLER_4_153
*715 FILLER_4_156
*716 FILLER_4_16
*717 FILLER_4_163
*718 FILLER_4_169
*719 FILLER_4_200
*720 FILLER_4_206
*721 FILLER_4_212
*722 FILLER_4_216
*723 FILLER_4_218
*724 FILLER_4_245
*725 FILLER_4_257
*726 FILLER_4_269
*727 FILLER_4_277
*728 FILLER_4_280
*729 FILLER_4_29
*730 FILLER_4_292
*731 FILLER_4_3
*732 FILLER_4_304
*733 FILLER_4_316
*734 FILLER_4_32
*735 FILLER_4_36
*736 FILLER_4_62
*737 FILLER_4_91
*738 FILLER_4_94
*739 FILLER_5_110
*740 FILLER_5_120
*741 FILLER_5_125
*742 FILLER_5_152
*743 FILLER_5_181
*744 FILLER_5_185
*745 FILLER_5_187
*746 FILLER_5_194
*747 FILLER_5_198
*748 FILLER_5_224
*749 FILLER_5_230
*750 FILLER_5_236
*751 FILLER_5_242
*752 FILLER_5_249
*753 FILLER_5_253
*754 FILLER_5_265
*755 FILLER_5_277
*756 FILLER_5_289
*757 FILLER_5_3
*758 FILLER_5_301
*759 FILLER_5_308
*760 FILLER_5_31
*761 FILLER_5_311
*762 FILLER_5_319
*763 FILLER_5_60
*764 FILLER_5_63
*765 FILLER_5_74
*766 FILLER_5_81
*767 FILLER_6_124
*768 FILLER_6_15
*769 FILLER_6_153
*770 FILLER_6_156
*771 FILLER_6_163
*772 FILLER_6_172
*773 FILLER_6_178
*774 FILLER_6_204
*775 FILLER_6_210
*776 FILLER_6_216
*777 FILLER_6_218
*778 FILLER_6_245
*779 FILLER_6_274
*780 FILLER_6_278
*781 FILLER_6_28
*782 FILLER_6_280
*783 FILLER_6_288
*784 FILLER_6_3
*785 FILLER_6_314
*786 FILLER_6_32
*787 FILLER_6_36
*788 FILLER_6_62
*789 FILLER_6_91
*790 FILLER_6_94
*791 FILLER_6_98
*792 FILLER_7_110
*793 FILLER_7_120
*794 FILLER_7_125
*795 FILLER_7_133
*796 FILLER_7_142
*797 FILLER_7_151
*798 FILLER_7_180
*799 FILLER_7_187
*800 FILLER_7_215
*801 FILLER_7_244
*802 FILLER_7_249
*803 FILLER_7_276
*804 FILLER_7_3
*805 FILLER_7_305
*806 FILLER_7_309
*807 FILLER_7_31
*808 FILLER_7_311
*809 FILLER_7_319
*810 FILLER_7_60
*811 FILLER_7_63
*812 FILLER_7_71
*813 FILLER_7_81
*814 FILLER_8_121
*815 FILLER_8_127
*816 FILLER_8_153
*817 FILLER_8_156
*818 FILLER_8_16
*819 FILLER_8_163
*820 FILLER_8_167
*821 FILLER_8_193
*822 FILLER_8_199
*823 FILLER_8_205
*824 FILLER_8_211
*825 FILLER_8_218
*826 FILLER_8_245
*827 FILLER_8_274
*828 FILLER_8_278
*829 FILLER_8_280
*830 FILLER_8_29
*831 FILLER_8_3
*832 FILLER_8_307
*833 FILLER_8_319
*834 FILLER_8_32
*835 FILLER_8_36
*836 FILLER_8_46
*837 FILLER_8_75
*838 FILLER_8_85
*839 FILLER_8_9
*840 FILLER_8_91
*841 FILLER_8_94
*842 FILLER_9_122
*843 FILLER_9_125
*844 FILLER_9_136
*845 FILLER_9_165
*846 FILLER_9_17
*847 FILLER_9_174
*848 FILLER_9_180
*849 FILLER_9_187
*850 FILLER_9_214
*851 FILLER_9_243
*852 FILLER_9_247
*853 FILLER_9_249
*854 FILLER_9_276
*855 FILLER_9_3
*856 FILLER_9_305
*857 FILLER_9_309
*858 FILLER_9_311
*859 FILLER_9_319
*860 FILLER_9_46
*861 FILLER_9_59
*862 FILLER_9_63
*863 FILLER_9_67
*864 FILLER_9_7
*865 FILLER_9_93
*866 PHY_0
*867 PHY_1
*868 PHY_10
*869 PHY_11
*870 PHY_12
*871 PHY_13
*872 PHY_14
*873 PHY_15
*874 PHY_16
*875 PHY_17
*876 PHY_18
*877 PHY_19
*878 PHY_2
*879 PHY_20
*880 PHY_21
*881 PHY_22
*882 PHY_23
*883 PHY_24
*884 PHY_25
*885 PHY_26
*886 PHY_27
*887 PHY_28
*888 PHY_29
*889 PHY_3
*890 PHY_30
*891 PHY_31
*892 PHY_32
*893 PHY_33
*894 PHY_34
*895 PHY_35
*896 PHY_36
*897 PHY_37
*898 PHY_38
*899 PHY_39
*900 PHY_4
*901 PHY_40
*902 PHY_41
*903 PHY_5
*904 PHY_6
*905 PHY_7
*906 PHY_8
*907 PHY_9
*908 TAP_100
*909 TAP_101
*910 TAP_102
*911 TAP_103
*912 TAP_104
*913 TAP_105
*914 TAP_106
*915 TAP_107
*916 TAP_108
*917 TAP_109
*918 TAP_110
*919 TAP_111
*920 TAP_112
*921 TAP_113
*922 TAP_114
*923 TAP_115
*924 TAP_116
*925 TAP_117
*926 TAP_118
*927 TAP_119
*928 TAP_120
*929 TAP_121
*930 TAP_122
*931 TAP_123
*932 TAP_124
*933 TAP_125
*934 TAP_126
*935 TAP_127
*936 TAP_128
*937 TAP_129
*938 TAP_130
*939 TAP_131
*940 TAP_132
*941 TAP_133
*942 TAP_134
*943 TAP_135
*944 TAP_136
*945 TAP_137
*946 TAP_138
*947 TAP_139
*948 TAP_140
*949 TAP_141
*950 TAP_142
*951 TAP_143
*952 TAP_144
*953 TAP_145
*954 TAP_146
*955 TAP_147
*956 TAP_148
*957 TAP_149
*958 TAP_150
*959 TAP_151
*960 TAP_152
*961 TAP_153
*962 TAP_154
*963 TAP_155
*964 TAP_156
*965 TAP_42
*966 TAP_43