* NGSPICE file created from adc_edge_detect_circuit.ext - technology: sky130A

.subckt sky130_fd_sc_hd__decap_6 VGND VPWR VNB VPB
X0 VPWR VGND VPWR VPB sky130_fd_pr__pfet_01v8_hvt ad=4.524e+11p pd=4.52e+06u as=0p ps=0u w=870000u l=1.97e+06u
X1 VGND VPWR VGND VNB sky130_fd_pr__nfet_01v8 ad=2.86e+11p pd=3.24e+06u as=0p ps=0u w=550000u l=1.97e+06u
.ends

.subckt sky130_fd_sc_hd__decap_4 VGND VPWR VNB VPB
X0 VPWR VGND VPWR VPB sky130_fd_pr__pfet_01v8_hvt ad=4.524e+11p pd=4.52e+06u as=0p ps=0u w=870000u l=1.05e+06u
X1 VGND VPWR VGND VNB sky130_fd_pr__nfet_01v8 ad=2.86e+11p pd=3.24e+06u as=0p ps=0u w=550000u l=1.05e+06u
.ends

.subckt sky130_fd_sc_hd__decap_3 VGND VPWR VNB VPB
X0 VPWR VGND VPWR VPB sky130_fd_pr__pfet_01v8_hvt ad=4.524e+11p pd=4.52e+06u as=0p ps=0u w=870000u l=590000u
X1 VGND VPWR VGND VNB sky130_fd_pr__nfet_01v8 ad=2.86e+11p pd=3.24e+06u as=0p ps=0u w=550000u l=590000u
.ends

.subckt sky130_fd_sc_hd__clkdlybuf4s50_2 A VGND VPWR X VNB VPB
X0 VPWR a_283_47# a_390_47# VPB sky130_fd_pr__pfet_01v8_hvt ad=1.0458e+12p pd=8.16e+06u as=2.132e+11p ps=2.16e+06u w=820000u l=500000u
X1 a_283_47# a_27_47# VPWR VPB sky130_fd_pr__pfet_01v8_hvt ad=2.173e+11p pd=2.17e+06u as=0p ps=0u w=820000u l=500000u
X2 VPWR a_390_47# X VPB sky130_fd_pr__pfet_01v8_hvt ad=0p pd=0u as=2.75e+11p ps=2.55e+06u w=1e+06u l=150000u
X3 VPWR A a_27_47# VPB sky130_fd_pr__pfet_01v8_hvt ad=0p pd=0u as=2.7e+11p ps=2.54e+06u w=1e+06u l=150000u
X4 X a_390_47# VPWR VPB sky130_fd_pr__pfet_01v8_hvt ad=0p pd=0u as=0p ps=0u w=1e+06u l=150000u
X5 VGND a_283_47# a_390_47# VNB sky130_fd_pr__nfet_01v8 ad=5.686e+11p pd=5.6e+06u as=1.69e+11p ps=1.82e+06u w=650000u l=500000u
X6 VGND A a_27_47# VNB sky130_fd_pr__nfet_01v8 ad=0p pd=0u as=1.134e+11p ps=1.38e+06u w=420000u l=150000u
X7 VGND a_390_47# X VNB sky130_fd_pr__nfet_01v8 ad=0p pd=0u as=1.155e+11p ps=1.39e+06u w=420000u l=150000u
X8 a_283_47# a_27_47# VGND VNB sky130_fd_pr__nfet_01v8 ad=1.7225e+11p pd=1.83e+06u as=0p ps=0u w=650000u l=500000u
X9 X a_390_47# VGND VNB sky130_fd_pr__nfet_01v8 ad=0p pd=0u as=0p ps=0u w=420000u l=150000u
.ends

.subckt sky130_fd_sc_hd__decap_8 VGND VPWR VNB VPB
X0 VPWR VGND VPWR VPB sky130_fd_pr__pfet_01v8_hvt ad=4.524e+11p pd=4.52e+06u as=0p ps=0u w=870000u l=2.89e+06u
X1 VGND VPWR VGND VNB sky130_fd_pr__nfet_01v8 ad=2.86e+11p pd=3.24e+06u as=0p ps=0u w=550000u l=2.89e+06u
.ends

.subckt sky130_fd_sc_hd__inv_1 A VGND VPWR Y VNB VPB
X0 Y A VGND VNB sky130_fd_pr__nfet_01v8 ad=1.69e+11p pd=1.82e+06u as=1.69e+11p ps=1.82e+06u w=650000u l=150000u
X1 Y A VPWR VPB sky130_fd_pr__pfet_01v8_hvt ad=2.6e+11p pd=2.52e+06u as=2.6e+11p ps=2.52e+06u w=1e+06u l=150000u
.ends

.subckt sky130_ef_sc_hd__decap_12 VGND VPWR VNB VPB
X0 VPWR VGND VPWR VPB sky130_fd_pr__pfet_01v8_hvt ad=4.524e+11p pd=4.52e+06u as=0p ps=0u w=870000u l=4.73e+06u
X1 VGND VPWR VGND VNB sky130_fd_pr__nfet_01v8 ad=2.86e+11p pd=3.24e+06u as=0p ps=0u w=550000u l=4.73e+06u
.ends

.subckt sky130_fd_sc_hd__nor2_1 A B VGND VPWR Y VNB VPB
X0 VPWR A a_109_297# VPB sky130_fd_pr__pfet_01v8_hvt ad=2.6e+11p pd=2.52e+06u as=2.1e+11p ps=2.42e+06u w=1e+06u l=150000u
X1 VGND A Y VNB sky130_fd_pr__nfet_01v8 ad=3.38e+11p pd=3.64e+06u as=1.755e+11p ps=1.84e+06u w=650000u l=150000u
X2 a_109_297# B Y VPB sky130_fd_pr__pfet_01v8_hvt ad=0p pd=0u as=2.6e+11p ps=2.52e+06u w=1e+06u l=150000u
X3 Y B VGND VNB sky130_fd_pr__nfet_01v8 ad=0p pd=0u as=0p ps=0u w=650000u l=150000u
.ends

.subckt adc_edge_detect_circuit VGND VPWR ena_in ena_out start_conv
XFILLER_22_133 VGND VPWR VGND VPWR sky130_fd_sc_hd__decap_6
XFILLER_45_236 VGND VPWR VGND VPWR sky130_fd_sc_hd__decap_4
XFILLER_26_85 VGND VPWR VGND VPWR sky130_fd_sc_hd__decap_6
XFILLER_13_155 VGND VPWR VGND VPWR sky130_fd_sc_hd__decap_3
Xx1_x15 x1_x15/A VGND VPWR x1_x16/A VGND VPWR sky130_fd_sc_hd__clkdlybuf4s50_2
XFILLER_27_214 VGND VPWR VGND VPWR sky130_fd_sc_hd__decap_8
Xx3_x1590 x3_x1590/A VGND VPWR x3_x1591/A VGND VPWR sky130_fd_sc_hd__clkdlybuf4s50_2
XFILLER_41_272 VGND VPWR VGND VPWR sky130_fd_sc_hd__decap_8
Xx3_x125 x3_x125/A VGND VPWR x3_x126/A VGND VPWR sky130_fd_sc_hd__clkdlybuf4s50_2
Xx3_x158 x3_x158/A VGND VPWR x3_x159/A VGND VPWR sky130_fd_sc_hd__clkdlybuf4s50_2
Xx3_x147 x3_x147/A VGND VPWR x3_x148/A VGND VPWR sky130_fd_sc_hd__clkdlybuf4s50_2
Xx3_x136 x3_x136/A VGND VPWR x3_x137/A VGND VPWR sky130_fd_sc_hd__clkdlybuf4s50_2
Xx3_x114 x3_x114/A VGND VPWR x3_x115/A VGND VPWR sky130_fd_sc_hd__clkdlybuf4s50_2
Xx3_x169 x3_x169/A VGND VPWR x3_x170/A VGND VPWR sky130_fd_sc_hd__clkdlybuf4s50_2
XFILLER_26_280 VGND VPWR VGND VPWR sky130_fd_sc_hd__decap_8
Xx1_x1405 x1_x1405/A VGND VPWR x1_x1406/A VGND VPWR sky130_fd_sc_hd__clkdlybuf4s50_2
Xx1_x1416 x1_x1416/A VGND VPWR x1_x1417/A VGND VPWR sky130_fd_sc_hd__clkdlybuf4s50_2
Xx1_x1427 x1_x1427/A VGND VPWR x1_x1428/A VGND VPWR sky130_fd_sc_hd__clkdlybuf4s50_2
Xx1_x1438 x1_x1438/A VGND VPWR x1_x1439/A VGND VPWR sky130_fd_sc_hd__clkdlybuf4s50_2
Xx1_x1449 x1_x1449/A VGND VPWR x1_x1450/A VGND VPWR sky130_fd_sc_hd__clkdlybuf4s50_2
XFILLER_20_253 VGND VPWR VGND VPWR sky130_fd_sc_hd__decap_3
Xx1_x1279 x1_x1279/A VGND VPWR x1_x1280/A VGND VPWR sky130_fd_sc_hd__clkdlybuf4s50_2
Xx1_x1257 x1_x1257/A VGND VPWR x1_x1258/A VGND VPWR sky130_fd_sc_hd__clkdlybuf4s50_2
Xx1_x1224 x1_x1224/A VGND VPWR x1_x1225/A VGND VPWR sky130_fd_sc_hd__clkdlybuf4s50_2
Xx1_x1268 x1_x1268/A VGND VPWR x1_x1269/A VGND VPWR sky130_fd_sc_hd__clkdlybuf4s50_2
Xx1_x1246 x1_x1246/A VGND VPWR x1_x1247/A VGND VPWR sky130_fd_sc_hd__clkdlybuf4s50_2
Xx1_x1235 x1_x1235/A VGND VPWR x1_x1236/A VGND VPWR sky130_fd_sc_hd__clkdlybuf4s50_2
Xx1_x1213 x1_x1213/A VGND VPWR x1_x1214/A VGND VPWR sky130_fd_sc_hd__clkdlybuf4s50_2
Xx1_x1202 x1_x1202/A VGND VPWR x1_x1203/A VGND VPWR sky130_fd_sc_hd__clkdlybuf4s50_2
XFILLER_18_97 VGND VPWR VGND VPWR sky130_fd_sc_hd__decap_3
XFILLER_11_275 VGND VPWR VGND VPWR sky130_fd_sc_hd__decap_4
XFILLER_29_106 VGND VPWR VGND VPWR sky130_fd_sc_hd__decap_6
XFILLER_29_139 VGND VPWR VGND VPWR sky130_fd_sc_hd__decap_6
XFILLER_20_21 VGND VPWR VGND VPWR sky130_fd_sc_hd__decap_6
Xx3_x1408 x3_x1408/A VGND VPWR x3_x1409/A VGND VPWR sky130_fd_sc_hd__clkdlybuf4s50_2
Xx3_x1419 x3_x1419/A VGND VPWR x3_x1420/A VGND VPWR sky130_fd_sc_hd__clkdlybuf4s50_2
XFILLER_13_3 VGND VPWR VGND VPWR sky130_fd_sc_hd__decap_6
XFILLER_19_161 VGND VPWR VGND VPWR sky130_fd_sc_hd__decap_6
XFILLER_15_32 VGND VPWR VGND VPWR sky130_fd_sc_hd__decap_3
XFILLER_48_245 VGND VPWR VGND VPWR sky130_fd_sc_hd__decap_6
Xx3_x1216 x3_x1216/A VGND VPWR x3_x1217/A VGND VPWR sky130_fd_sc_hd__clkdlybuf4s50_2
Xx3_x1205 x3_x1205/A VGND VPWR x3_x1206/A VGND VPWR sky130_fd_sc_hd__clkdlybuf4s50_2
Xx3_x1227 x3_x1227/A VGND VPWR x3_x1228/A VGND VPWR sky130_fd_sc_hd__clkdlybuf4s50_2
Xx3_x1238 x3_x1238/A VGND VPWR x3_x1239/A VGND VPWR sky130_fd_sc_hd__clkdlybuf4s50_2
Xx3_x1249 x3_x1249/A VGND VPWR x3_x1250/A VGND VPWR sky130_fd_sc_hd__clkdlybuf4s50_2
Xx1_x16 x1_x16/A VGND VPWR x1_x17/A VGND VPWR sky130_fd_sc_hd__clkdlybuf4s50_2
XFILLER_35_281 VGND VPWR VGND VPWR sky130_fd_sc_hd__decap_6
Xx3_x1591 x3_x1591/A VGND VPWR x3_x1592/A VGND VPWR sky130_fd_sc_hd__clkdlybuf4s50_2
Xx3_x1580 x3_x1580/A VGND VPWR x3_x1581/A VGND VPWR sky130_fd_sc_hd__clkdlybuf4s50_2
Xx3_x115 x3_x115/A VGND VPWR x3_x116/A VGND VPWR sky130_fd_sc_hd__clkdlybuf4s50_2
Xx3_x126 x3_x126/A VGND VPWR x3_x127/A VGND VPWR sky130_fd_sc_hd__clkdlybuf4s50_2
Xx3_x148 x3_x148/A VGND VPWR x3_x149/A VGND VPWR sky130_fd_sc_hd__clkdlybuf4s50_2
Xx3_x159 x3_x159/A VGND VPWR x3_x160/A VGND VPWR sky130_fd_sc_hd__clkdlybuf4s50_2
Xx3_x137 x3_x137/A VGND VPWR x3_x138/A VGND VPWR sky130_fd_sc_hd__clkdlybuf4s50_2
XFILLER_17_281 VGND VPWR VGND VPWR sky130_fd_sc_hd__decap_6
Xx1_x1406 x1_x1406/A VGND VPWR x1_x1407/A VGND VPWR sky130_fd_sc_hd__clkdlybuf4s50_2
Xx1_x1417 x1_x1417/A VGND VPWR x1_x1418/A VGND VPWR sky130_fd_sc_hd__clkdlybuf4s50_2
Xx1_x1428 x1_x1428/A VGND VPWR x1_x1429/A VGND VPWR sky130_fd_sc_hd__clkdlybuf4s50_2
Xx1_x1439 x1_x1439/A VGND VPWR x1_x1440/A VGND VPWR sky130_fd_sc_hd__clkdlybuf4s50_2
XFILLER_15_218 VGND VPWR VGND VPWR sky130_fd_sc_hd__decap_6
XFILLER_2_133 VGND VPWR VGND VPWR sky130_fd_sc_hd__decap_6
Xx1_x1258 x1_x1258/A VGND VPWR x1_x1259/A VGND VPWR sky130_fd_sc_hd__clkdlybuf4s50_2
Xx1_x1269 x1_x1269/A VGND VPWR x1_x1270/A VGND VPWR sky130_fd_sc_hd__clkdlybuf4s50_2
Xx1_x1225 x1_x1225/A VGND VPWR x1_x1226/A VGND VPWR sky130_fd_sc_hd__clkdlybuf4s50_2
Xx1_x1247 x1_x1247/A VGND VPWR x1_x1248/A VGND VPWR sky130_fd_sc_hd__clkdlybuf4s50_2
Xx1_x1236 x1_x1236/A VGND VPWR x1_x1237/A VGND VPWR sky130_fd_sc_hd__clkdlybuf4s50_2
Xx1_x1214 x1_x1214/A VGND VPWR x1_x1215/A VGND VPWR sky130_fd_sc_hd__clkdlybuf4s50_2
Xx1_x1203 x1_x1203/A VGND VPWR x1_x1204/A VGND VPWR sky130_fd_sc_hd__clkdlybuf4s50_2
XFILLER_11_210 VGND VPWR VGND VPWR sky130_fd_sc_hd__decap_4
XFILLER_46_173 VGND VPWR VGND VPWR sky130_fd_sc_hd__decap_6
Xx3_x1409 x3_x1409/A VGND VPWR x3_x1410/A VGND VPWR sky130_fd_sc_hd__clkdlybuf4s50_2
XFILLER_15_44 VGND VPWR VGND VPWR sky130_fd_sc_hd__decap_3
XFILLER_25_198 VGND VPWR VGND VPWR sky130_fd_sc_hd__decap_4
XFILLER_0_253 VGND VPWR VGND VPWR sky130_fd_sc_hd__decap_8
Xx3_x1228 x3_x1228/A VGND VPWR x3_x1229/A VGND VPWR sky130_fd_sc_hd__clkdlybuf4s50_2
Xx3_x1217 x3_x1217/A VGND VPWR x3_x1218/A VGND VPWR sky130_fd_sc_hd__clkdlybuf4s50_2
Xx3_x1206 x3_x1206/A VGND VPWR x3_x1207/A VGND VPWR sky130_fd_sc_hd__clkdlybuf4s50_2
Xx3_x1239 x3_x1239/A VGND VPWR x3_x1240/A VGND VPWR sky130_fd_sc_hd__clkdlybuf4s50_2
XFILLER_45_249 VGND VPWR VGND VPWR sky130_fd_sc_hd__decap_3
XFILLER_13_113 VGND VPWR VGND VPWR sky130_fd_sc_hd__decap_6
Xx1_x17 x1_x17/A VGND VPWR x1_x18/A VGND VPWR sky130_fd_sc_hd__clkdlybuf4s50_2
XFILLER_8_150 VGND VPWR VGND VPWR sky130_fd_sc_hd__decap_3
Xx3_x1592 x3_x1592/A VGND VPWR x3_x1593/A VGND VPWR sky130_fd_sc_hd__clkdlybuf4s50_2
Xx3_x1581 x3_x1581/A VGND VPWR x3_x1582/A VGND VPWR sky130_fd_sc_hd__clkdlybuf4s50_2
Xx3_x1570 x3_x1570/A VGND VPWR x3_x1571/A VGND VPWR sky130_fd_sc_hd__clkdlybuf4s50_2
XFILLER_33_219 VGND VPWR VGND VPWR sky130_fd_sc_hd__decap_4
Xx3_x116 x3_x116/A VGND VPWR x3_x117/A VGND VPWR sky130_fd_sc_hd__clkdlybuf4s50_2
Xx3_x127 x3_x127/A VGND VPWR x3_x128/A VGND VPWR sky130_fd_sc_hd__clkdlybuf4s50_2
Xx2 start_conv VGND VPWR x4/B VGND VPWR sky130_fd_sc_hd__inv_1
Xx3_x149 x3_x149/A VGND VPWR x3_x150/A VGND VPWR sky130_fd_sc_hd__clkdlybuf4s50_2
Xx3_x138 x3_x138/A VGND VPWR x3_x139/A VGND VPWR sky130_fd_sc_hd__clkdlybuf4s50_2
XFILLER_24_208 VGND VPWR VGND VPWR sky130_fd_sc_hd__decap_8
Xx1_x1407 x1_x1407/A VGND VPWR x1_x1408/A VGND VPWR sky130_fd_sc_hd__clkdlybuf4s50_2
Xx1_x1418 x1_x1418/A VGND VPWR x1_x1419/A VGND VPWR sky130_fd_sc_hd__clkdlybuf4s50_2
Xx1_x1429 x1_x1429/A VGND VPWR x1_x1430/A VGND VPWR sky130_fd_sc_hd__clkdlybuf4s50_2
XFILLER_3_3 VGND VPWR VGND VPWR sky130_fd_sc_hd__decap_4
XFILLER_2_167 VGND VPWR VGND VPWR sky130_fd_sc_hd__decap_6
Xx1_x1215 x1_x1215/A VGND VPWR x1_x1216/A VGND VPWR sky130_fd_sc_hd__clkdlybuf4s50_2
Xx1_x1204 x1_x1204/A VGND VPWR x1_x1205/A VGND VPWR sky130_fd_sc_hd__clkdlybuf4s50_2
Xx1_x1259 x1_x1259/A VGND VPWR x1_x1260/A VGND VPWR sky130_fd_sc_hd__clkdlybuf4s50_2
Xx1_x1226 x1_x1226/A VGND VPWR x1_x1227/A VGND VPWR sky130_fd_sc_hd__clkdlybuf4s50_2
Xx1_x1248 x1_x1248/A VGND VPWR x1_x1249/A VGND VPWR sky130_fd_sc_hd__clkdlybuf4s50_2
Xx1_x1237 x1_x1237/A VGND VPWR x1_x1238/A VGND VPWR sky130_fd_sc_hd__clkdlybuf4s50_2
XFILLER_46_141 VGND VPWR VGND VPWR sky130_fd_sc_hd__decap_6
XFILLER_28_141 VGND VPWR VGND VPWR sky130_fd_sc_hd__decap_4
XFILLER_28_163 VGND VPWR VGND VPWR sky130_fd_sc_hd__decap_4
XFILLER_3_262 VGND VPWR VGND VPWR sky130_fd_sc_hd__decap_6
Xx1_x1590 x1_x1590/A VGND VPWR x1_x1591/A VGND VPWR sky130_fd_sc_hd__clkdlybuf4s50_2
XFILLER_25_122 VGND VPWR VGND VPWR sky130_fd_sc_hd__decap_4
XFILLER_31_66 VGND VPWR VGND VPWR sky130_fd_sc_hd__decap_6
XFILLER_31_169 VGND VPWR VGND VPWR sky130_ef_sc_hd__decap_12
Xx3_x1207 x3_x1207/A VGND VPWR x3_x1208/A VGND VPWR sky130_fd_sc_hd__clkdlybuf4s50_2
Xx3_x1229 x3_x1229/A VGND VPWR x3_x1230/A VGND VPWR sky130_fd_sc_hd__clkdlybuf4s50_2
Xx3_x1218 x3_x1218/A VGND VPWR x3_x1219/A VGND VPWR sky130_fd_sc_hd__clkdlybuf4s50_2
XFILLER_39_258 VGND VPWR VGND VPWR sky130_fd_sc_hd__decap_3
XFILLER_39_236 VGND VPWR VGND VPWR sky130_fd_sc_hd__decap_3
Xx1_x18 x1_x18/A VGND VPWR x1_x19/A VGND VPWR sky130_fd_sc_hd__clkdlybuf4s50_2
Xx3_x1593 x3_x1593/A VGND VPWR x3_x1594/A VGND VPWR sky130_fd_sc_hd__clkdlybuf4s50_2
Xx3_x1560 x3_x1560/A VGND VPWR x3_x1561/A VGND VPWR sky130_fd_sc_hd__clkdlybuf4s50_2
Xx3_x1582 x3_x1582/A VGND VPWR x3_x1583/A VGND VPWR sky130_fd_sc_hd__clkdlybuf4s50_2
Xx3_x1571 x3_x1571/A VGND VPWR x3_x1572/A VGND VPWR sky130_fd_sc_hd__clkdlybuf4s50_2
Xx3_x128 x3_x128/A VGND VPWR x3_x129/A VGND VPWR sky130_fd_sc_hd__clkdlybuf4s50_2
Xx3_x139 x3_x139/A VGND VPWR x3_x140/A VGND VPWR sky130_fd_sc_hd__clkdlybuf4s50_2
Xx3_x117 x3_x117/A VGND VPWR x3_x118/A VGND VPWR sky130_fd_sc_hd__clkdlybuf4s50_2
XFILLER_5_132 VGND VPWR VGND VPWR sky130_fd_sc_hd__decap_6
XFILLER_32_253 VGND VPWR VGND VPWR sky130_fd_sc_hd__decap_8
XFILLER_17_261 VGND VPWR VGND VPWR sky130_fd_sc_hd__decap_4
Xx1_x1408 x1_x1408/A VGND VPWR x1_x1409/A VGND VPWR sky130_fd_sc_hd__clkdlybuf4s50_2
Xx1_x1419 x1_x1419/A VGND VPWR x1_x1420/A VGND VPWR sky130_fd_sc_hd__clkdlybuf4s50_2
XFILLER_23_275 VGND VPWR VGND VPWR sky130_fd_sc_hd__decap_4
Xx3_x1390 x3_x1390/A VGND VPWR x3_x1391/A VGND VPWR sky130_fd_sc_hd__clkdlybuf4s50_2
XFILLER_14_253 VGND VPWR VGND VPWR sky130_fd_sc_hd__decap_8
XFILLER_29_3 VGND VPWR VGND VPWR sky130_fd_sc_hd__decap_3
Xx1_x1227 x1_x1227/A VGND VPWR x1_x1228/A VGND VPWR sky130_fd_sc_hd__clkdlybuf4s50_2
Xx1_x1216 x1_x1216/A VGND VPWR x1_x1217/A VGND VPWR sky130_fd_sc_hd__clkdlybuf4s50_2
Xx1_x1238 x1_x1238/A VGND VPWR x1_x1239/A VGND VPWR sky130_fd_sc_hd__clkdlybuf4s50_2
Xx1_x1205 x1_x1205/A VGND VPWR x1_x1206/A VGND VPWR sky130_fd_sc_hd__clkdlybuf4s50_2
Xx1_x1249 x1_x1249/A VGND VPWR x1_x1250/A VGND VPWR sky130_fd_sc_hd__clkdlybuf4s50_2
XFILLER_29_33 VGND VPWR VGND VPWR sky130_fd_sc_hd__decap_3
Xx1_x1591 x1_x1591/A VGND VPWR x1_x1592/A VGND VPWR sky130_fd_sc_hd__clkdlybuf4s50_2
Xx1_x1580 x1_x1580/A VGND VPWR x1_x1581/A VGND VPWR sky130_fd_sc_hd__clkdlybuf4s50_2
XFILLER_15_57 VGND VPWR VGND VPWR sky130_fd_sc_hd__decap_6
XFILLER_16_134 VGND VPWR VGND VPWR sky130_fd_sc_hd__decap_6
Xx3_x1208 x3_x1208/A VGND VPWR x3_x1209/A VGND VPWR sky130_fd_sc_hd__clkdlybuf4s50_2
Xx3_x1219 x3_x1219/A VGND VPWR x3_x1220/A VGND VPWR sky130_fd_sc_hd__clkdlybuf4s50_2
XFILLER_47_281 VGND VPWR VGND VPWR sky130_fd_sc_hd__decap_6
XFILLER_30_192 VGND VPWR VGND VPWR sky130_fd_sc_hd__decap_4
XFILLER_26_12 VGND VPWR VGND VPWR sky130_fd_sc_hd__decap_6
XFILLER_29_281 VGND VPWR VGND VPWR sky130_fd_sc_hd__decap_6
XFILLER_44_262 VGND VPWR VGND VPWR sky130_fd_sc_hd__decap_6
Xx1_x19 x1_x19/A VGND VPWR x1_x19/X VGND VPWR sky130_fd_sc_hd__clkdlybuf4s50_2
Xx3_x1550 x3_x1550/A VGND VPWR x3_x1551/A VGND VPWR sky130_fd_sc_hd__clkdlybuf4s50_2
Xx3_x1561 x3_x1561/A VGND VPWR x3_x1562/A VGND VPWR sky130_fd_sc_hd__clkdlybuf4s50_2
XFILLER_37_22 VGND VPWR VGND VPWR sky130_fd_sc_hd__decap_6
Xx3_x1594 x3_x1594/A VGND VPWR x3_x1595/A VGND VPWR sky130_fd_sc_hd__clkdlybuf4s50_2
XFILLER_18_229 VGND VPWR VGND VPWR sky130_fd_sc_hd__decap_3
Xx3_x1583 x3_x1583/A VGND VPWR x3_x1584/A VGND VPWR sky130_fd_sc_hd__clkdlybuf4s50_2
Xx3_x1572 x3_x1572/A VGND VPWR x3_x1573/A VGND VPWR sky130_fd_sc_hd__clkdlybuf4s50_2
Xx3_x118 x3_x118/A VGND VPWR x3_x119/A VGND VPWR sky130_fd_sc_hd__clkdlybuf4s50_2
Xx3_x129 x3_x129/A VGND VPWR x3_x130/A VGND VPWR sky130_fd_sc_hd__clkdlybuf4s50_2
Xx4 x4/A x4/B VGND VPWR x5/A VGND VPWR sky130_fd_sc_hd__nor2_1
XFILLER_5_100 VGND VPWR VGND VPWR sky130_fd_sc_hd__decap_3
Xx1_x1409 x1_x1409/A VGND VPWR x1_x1410/A VGND VPWR sky130_fd_sc_hd__clkdlybuf4s50_2
XFILLER_23_57 VGND VPWR VGND VPWR sky130_fd_sc_hd__decap_4
XFILLER_23_79 VGND VPWR VGND VPWR sky130_fd_sc_hd__decap_6
Xx3_x1391 x3_x1391/A VGND VPWR x3_x1392/A VGND VPWR sky130_fd_sc_hd__clkdlybuf4s50_2
Xx3_x1380 x3_x1380/A VGND VPWR x3_x1381/A VGND VPWR sky130_fd_sc_hd__clkdlybuf4s50_2
Xx1_x1228 x1_x1228/A VGND VPWR x1_x1229/A VGND VPWR sky130_fd_sc_hd__clkdlybuf4s50_2
Xx1_x1217 x1_x1217/A VGND VPWR x1_x1218/A VGND VPWR sky130_fd_sc_hd__clkdlybuf4s50_2
Xx1_x1239 x1_x1239/A VGND VPWR x1_x1240/A VGND VPWR sky130_fd_sc_hd__clkdlybuf4s50_2
Xx1_x1206 x1_x1206/A VGND VPWR x1_x1207/A VGND VPWR sky130_fd_sc_hd__clkdlybuf4s50_2
XFILLER_18_13 VGND VPWR VGND VPWR sky130_fd_sc_hd__decap_6
XFILLER_41_3 VGND VPWR VGND VPWR sky130_fd_sc_hd__decap_8
XFILLER_37_198 VGND VPWR VGND VPWR sky130_fd_sc_hd__decap_4
XFILLER_45_99 VGND VPWR VGND VPWR sky130_fd_sc_hd__decap_3
XFILLER_45_66 VGND VPWR VGND VPWR sky130_fd_sc_hd__decap_6
XFILLER_43_113 VGND VPWR VGND VPWR sky130_fd_sc_hd__decap_4
XFILLER_6_16 VGND VPWR VGND VPWR sky130_fd_sc_hd__decap_3
Xx1_x1592 x1_x1592/A VGND VPWR x1_x1593/A VGND VPWR sky130_fd_sc_hd__clkdlybuf4s50_2
Xx1_x1570 x1_x1570/A VGND VPWR x1_x1571/A VGND VPWR sky130_fd_sc_hd__clkdlybuf4s50_2
Xx1_x1581 x1_x1581/A VGND VPWR x1_x1582/A VGND VPWR sky130_fd_sc_hd__clkdlybuf4s50_2
XFILLER_25_135 VGND VPWR VGND VPWR sky130_ef_sc_hd__decap_12
XFILLER_16_113 VGND VPWR VGND VPWR sky130_fd_sc_hd__decap_3
Xx3_x1209 x3_x1209/A VGND VPWR x3_x1210/A VGND VPWR sky130_fd_sc_hd__clkdlybuf4s50_2
XFILLER_38_271 VGND VPWR VGND VPWR sky130_fd_sc_hd__decap_4
XFILLER_42_12 VGND VPWR VGND VPWR sky130_fd_sc_hd__decap_4
XFILLER_21_160 VGND VPWR VGND VPWR sky130_fd_sc_hd__decap_8
XFILLER_8_197 VGND VPWR VGND VPWR sky130_fd_sc_hd__decap_3
XFILLER_12_193 VGND VPWR VGND VPWR sky130_fd_sc_hd__decap_3
Xx3_x1595 x3_x1595/A VGND VPWR x3_x1596/A VGND VPWR sky130_fd_sc_hd__clkdlybuf4s50_2
Xx3_x1540 x3_x1540/A VGND VPWR x3_x1541/A VGND VPWR sky130_fd_sc_hd__clkdlybuf4s50_2
Xx3_x1551 x3_x1551/A VGND VPWR x3_x1552/A VGND VPWR sky130_fd_sc_hd__clkdlybuf4s50_2
Xx3_x1562 x3_x1562/A VGND VPWR x3_x1563/A VGND VPWR sky130_fd_sc_hd__clkdlybuf4s50_2
Xx3_x1584 x3_x1584/A VGND VPWR x3_x1585/A VGND VPWR sky130_fd_sc_hd__clkdlybuf4s50_2
Xx3_x1573 x3_x1573/A VGND VPWR x3_x1574/A VGND VPWR sky130_fd_sc_hd__clkdlybuf4s50_2
XFILLER_26_230 VGND VPWR VGND VPWR sky130_fd_sc_hd__decap_8
Xx3_x119 x3_x119/A VGND VPWR x3_x120/A VGND VPWR sky130_fd_sc_hd__clkdlybuf4s50_2
Xx5 x5/A ena_in VGND VPWR x6/A VGND VPWR sky130_fd_sc_hd__nor2_1
XFILLER_17_274 VGND VPWR VGND VPWR sky130_fd_sc_hd__decap_6
XFILLER_32_244 VGND VPWR VGND VPWR sky130_fd_sc_hd__decap_8
Xx3_x1370 x3_x1370/A VGND VPWR x3_x1371/A VGND VPWR sky130_fd_sc_hd__clkdlybuf4s50_2
Xx3_x1392 x3_x1392/A VGND VPWR x3_x1393/A VGND VPWR sky130_fd_sc_hd__clkdlybuf4s50_2
Xx3_x1381 x3_x1381/A VGND VPWR x3_x1382/A VGND VPWR sky130_fd_sc_hd__clkdlybuf4s50_2
XFILLER_9_281 VGND VPWR VGND VPWR sky130_fd_sc_hd__decap_6
Xx1_x1229 x1_x1229/A VGND VPWR x1_x1230/A VGND VPWR sky130_fd_sc_hd__clkdlybuf4s50_2
Xx1_x1218 x1_x1218/A VGND VPWR x1_x1219/A VGND VPWR sky130_fd_sc_hd__clkdlybuf4s50_2
Xx1_x1207 x1_x1207/A VGND VPWR x1_x1208/A VGND VPWR sky130_fd_sc_hd__clkdlybuf4s50_2
XFILLER_18_47 VGND VPWR VGND VPWR sky130_fd_sc_hd__decap_3
XFILLER_34_24 VGND VPWR VGND VPWR sky130_fd_sc_hd__decap_4
XFILLER_1_3 VGND VPWR VGND VPWR sky130_fd_sc_hd__decap_6
XFILLER_34_3 VGND VPWR VGND VPWR sky130_fd_sc_hd__decap_3
XFILLER_28_177 VGND VPWR VGND VPWR sky130_fd_sc_hd__decap_3
Xx1_x1560 x1_x1560/A VGND VPWR x1_x1561/A VGND VPWR sky130_fd_sc_hd__clkdlybuf4s50_2
Xx1_x1593 x1_x1593/A VGND VPWR x1_x1594/A VGND VPWR sky130_fd_sc_hd__clkdlybuf4s50_2
Xx1_x1571 x1_x1571/A VGND VPWR x1_x1572/A VGND VPWR sky130_fd_sc_hd__clkdlybuf4s50_2
Xx1_x1582 x1_x1582/A VGND VPWR x1_x1583/A VGND VPWR sky130_fd_sc_hd__clkdlybuf4s50_2
XFILLER_25_147 VGND VPWR VGND VPWR sky130_fd_sc_hd__decap_3
XFILLER_40_128 VGND VPWR VGND VPWR sky130_fd_sc_hd__decap_3
XFILLER_48_206 VGND VPWR VGND VPWR sky130_fd_sc_hd__decap_3
Xx1_x1390 x1_x1390/A VGND VPWR x1_x1391/A VGND VPWR sky130_fd_sc_hd__clkdlybuf4s50_2
XFILLER_47_261 VGND VPWR VGND VPWR sky130_fd_sc_hd__decap_3
XPHY_0 VGND VPWR VGND VPWR sky130_fd_sc_hd__decap_3
XFILLER_35_275 VGND VPWR VGND VPWR sky130_fd_sc_hd__decap_4
Xx3_x1596 x3_x1596/A VGND VPWR x3_x1597/A VGND VPWR sky130_fd_sc_hd__clkdlybuf4s50_2
Xx3_x1530 x3_x1530/A VGND VPWR x3_x1531/A VGND VPWR sky130_fd_sc_hd__clkdlybuf4s50_2
Xx3_x1541 x3_x1541/A VGND VPWR x3_x1542/A VGND VPWR sky130_fd_sc_hd__clkdlybuf4s50_2
Xx3_x1552 x3_x1552/A VGND VPWR x3_x1553/A VGND VPWR sky130_fd_sc_hd__clkdlybuf4s50_2
Xx3_x1585 x3_x1585/A VGND VPWR x3_x1586/A VGND VPWR sky130_fd_sc_hd__clkdlybuf4s50_2
Xx3_x1563 x3_x1563/A VGND VPWR x3_x1564/A VGND VPWR sky130_fd_sc_hd__clkdlybuf4s50_2
Xx3_x1574 x3_x1574/A VGND VPWR x3_x1575/A VGND VPWR sky130_fd_sc_hd__clkdlybuf4s50_2
XFILLER_37_57 VGND VPWR VGND VPWR sky130_fd_sc_hd__decap_8
Xx6 x6/A VGND VPWR ena_out VGND VPWR sky130_fd_sc_hd__inv_1
XFILLER_17_220 VGND VPWR VGND VPWR sky130_fd_sc_hd__decap_4
XFILLER_23_26 VGND VPWR VGND VPWR sky130_fd_sc_hd__decap_3
XFILLER_23_234 VGND VPWR VGND VPWR sky130_fd_sc_hd__decap_4
Xx3_x1371 x3_x1371/A VGND VPWR x3_x1372/A VGND VPWR sky130_fd_sc_hd__clkdlybuf4s50_2
Xx3_x1393 x3_x1393/A VGND VPWR x3_x1394/A VGND VPWR sky130_fd_sc_hd__clkdlybuf4s50_2
Xx3_x1360 x3_x1360/A VGND VPWR x3_x1361/A VGND VPWR sky130_fd_sc_hd__clkdlybuf4s50_2
Xx3_x1382 x3_x1382/A VGND VPWR x3_x1383/A VGND VPWR sky130_fd_sc_hd__clkdlybuf4s50_2
XFILLER_9_39 VGND VPWR VGND VPWR sky130_fd_sc_hd__decap_6
Xx1_x1219 x1_x1219/A VGND VPWR x1_x1220/A VGND VPWR sky130_fd_sc_hd__clkdlybuf4s50_2
Xx1_x1208 x1_x1208/A VGND VPWR x1_x1209/A VGND VPWR sky130_fd_sc_hd__clkdlybuf4s50_2
XFILLER_18_59 VGND VPWR VGND VPWR sky130_fd_sc_hd__decap_6
Xx3_x1190 x3_x1190/A VGND VPWR x3_x1191/A VGND VPWR sky130_fd_sc_hd__clkdlybuf4s50_2
XFILLER_46_189 VGND VPWR VGND VPWR sky130_fd_sc_hd__decap_6
XFILLER_6_285 VGND VPWR VGND VPWR sky130_fd_sc_hd__decap_3
XFILLER_27_3 VGND VPWR VGND VPWR sky130_fd_sc_hd__decap_4
XFILLER_43_126 VGND VPWR VGND VPWR sky130_fd_sc_hd__decap_3
XFILLER_28_189 VGND VPWR VGND VPWR sky130_fd_sc_hd__decap_6
XFILLER_6_29 VGND VPWR VGND VPWR sky130_fd_sc_hd__decap_4
XFILLER_3_277 VGND VPWR VGND VPWR sky130_fd_sc_hd__decap_3
Xx1_x1594 x1_x1594/A VGND VPWR x1_x1595/A VGND VPWR sky130_fd_sc_hd__clkdlybuf4s50_2
Xx1_x1561 x1_x1561/A VGND VPWR x1_x1562/A VGND VPWR sky130_fd_sc_hd__clkdlybuf4s50_2
Xx1_x1583 x1_x1583/A VGND VPWR x1_x1584/A VGND VPWR sky130_fd_sc_hd__clkdlybuf4s50_2
Xx1_x1572 x1_x1572/A VGND VPWR x1_x1573/A VGND VPWR sky130_fd_sc_hd__clkdlybuf4s50_2
Xx1_x1550 x1_x1550/A VGND VPWR x1_x1551/A VGND VPWR sky130_fd_sc_hd__clkdlybuf4s50_2
XFILLER_0_225 VGND VPWR VGND VPWR sky130_fd_sc_hd__decap_4
XFILLER_0_247 VGND VPWR VGND VPWR sky130_fd_sc_hd__decap_4
XFILLER_48_218 VGND VPWR VGND VPWR sky130_fd_sc_hd__decap_6
XFILLER_24_192 VGND VPWR VGND VPWR sky130_fd_sc_hd__decap_4
Xx1_x1391 x1_x1391/A VGND VPWR x1_x1392/A VGND VPWR sky130_fd_sc_hd__clkdlybuf4s50_2
Xx1_x1380 x1_x1380/A VGND VPWR x1_x1381/A VGND VPWR sky130_fd_sc_hd__clkdlybuf4s50_2
XFILLER_47_273 VGND VPWR VGND VPWR sky130_fd_sc_hd__decap_6
XPHY_1 VGND VPWR VGND VPWR sky130_fd_sc_hd__decap_3
XFILLER_7_72 VGND VPWR VGND VPWR sky130_fd_sc_hd__decap_3
XFILLER_30_151 VGND VPWR VGND VPWR sky130_fd_sc_hd__decap_4
Xx3_x1597 x3_x1597/A VGND VPWR x3_x1598/A VGND VPWR sky130_fd_sc_hd__clkdlybuf4s50_2
Xx3_x1520 x3_x1520/A VGND VPWR x3_x1521/A VGND VPWR sky130_fd_sc_hd__clkdlybuf4s50_2
Xx3_x1531 x3_x1531/A VGND VPWR x3_x1532/A VGND VPWR sky130_fd_sc_hd__clkdlybuf4s50_2
Xx3_x1542 x3_x1542/A VGND VPWR x3_x1543/A VGND VPWR sky130_fd_sc_hd__clkdlybuf4s50_2
Xx3_x1553 x3_x1553/A VGND VPWR x3_x1554/A VGND VPWR sky130_fd_sc_hd__clkdlybuf4s50_2
Xx3_x1586 x3_x1586/A VGND VPWR x3_x1587/A VGND VPWR sky130_fd_sc_hd__clkdlybuf4s50_2
Xx3_x1564 x3_x1564/A VGND VPWR x3_x1565/A VGND VPWR sky130_fd_sc_hd__clkdlybuf4s50_2
Xx3_x1575 x3_x1575/A VGND VPWR x3_x1576/A VGND VPWR sky130_fd_sc_hd__clkdlybuf4s50_2
XFILLER_5_169 VGND VPWR VGND VPWR sky130_fd_sc_hd__decap_3
Xx3_x1350 x3_x1350/A VGND VPWR x3_x1351/A VGND VPWR sky130_fd_sc_hd__clkdlybuf4s50_2
Xx3_x1361 x3_x1361/A VGND VPWR x3_x1362/A VGND VPWR sky130_fd_sc_hd__clkdlybuf4s50_2
XFILLER_48_13 VGND VPWR VGND VPWR sky130_fd_sc_hd__decap_4
Xx3_x1372 x3_x1372/A VGND VPWR x3_x1373/A VGND VPWR sky130_fd_sc_hd__clkdlybuf4s50_2
Xx3_x1394 x3_x1394/A VGND VPWR x3_x1395/A VGND VPWR sky130_fd_sc_hd__clkdlybuf4s50_2
Xx3_x1383 x3_x1383/A VGND VPWR x3_x1384/A VGND VPWR sky130_fd_sc_hd__clkdlybuf4s50_2
Xx1_x1209 x1_x1209/A VGND VPWR x1_x1210/A VGND VPWR sky130_fd_sc_hd__clkdlybuf4s50_2
XFILLER_34_59 VGND VPWR VGND VPWR sky130_fd_sc_hd__decap_3
Xx3_x1180 x3_x1180/A VGND VPWR x3_x1181/A VGND VPWR sky130_fd_sc_hd__clkdlybuf4s50_2
Xx3_x1191 x3_x1191/A VGND VPWR x3_x1192/A VGND VPWR sky130_fd_sc_hd__clkdlybuf4s50_2
XFILLER_46_157 VGND VPWR VGND VPWR sky130_fd_sc_hd__decap_6
XFILLER_6_253 VGND VPWR VGND VPWR sky130_fd_sc_hd__decap_3
XFILLER_37_113 VGND VPWR VGND VPWR sky130_fd_sc_hd__decap_4
XFILLER_45_14 VGND VPWR VGND VPWR sky130_fd_sc_hd__decap_4
XFILLER_36_190 VGND VPWR VGND VPWR sky130_fd_sc_hd__decap_6
Xx1_x1595 x1_x1595/A VGND VPWR x1_x1596/A VGND VPWR sky130_fd_sc_hd__clkdlybuf4s50_2
Xx1_x1562 x1_x1562/A VGND VPWR x1_x1563/A VGND VPWR sky130_fd_sc_hd__clkdlybuf4s50_2
Xx1_x1584 x1_x1584/A VGND VPWR x1_x1585/A VGND VPWR sky130_fd_sc_hd__clkdlybuf4s50_2
Xx1_x1573 x1_x1573/A VGND VPWR x1_x1574/A VGND VPWR sky130_fd_sc_hd__clkdlybuf4s50_2
Xx1_x1551 x1_x1551/A VGND VPWR x1_x1552/A VGND VPWR sky130_fd_sc_hd__clkdlybuf4s50_2
Xx1_x1540 x1_x1540/A VGND VPWR x1_x1541/A VGND VPWR sky130_fd_sc_hd__clkdlybuf4s50_2
XFILLER_19_124 VGND VPWR VGND VPWR sky130_fd_sc_hd__decap_6
Xx1_x1392 x1_x1392/A VGND VPWR x1_x1393/A VGND VPWR sky130_fd_sc_hd__clkdlybuf4s50_2
Xx1_x1381 x1_x1381/A VGND VPWR x1_x1382/A VGND VPWR sky130_fd_sc_hd__clkdlybuf4s50_2
Xx1_x1370 x1_x1370/A VGND VPWR x1_x1371/A VGND VPWR sky130_fd_sc_hd__clkdlybuf4s50_2
XPHY_2 VGND VPWR VGND VPWR sky130_fd_sc_hd__decap_3
XFILLER_38_285 VGND VPWR VGND VPWR sky130_fd_sc_hd__decap_3
XFILLER_21_196 VGND VPWR VGND VPWR sky130_fd_sc_hd__decap_8
XFILLER_12_152 VGND VPWR VGND VPWR sky130_fd_sc_hd__decap_4
Xx3_x1510 x3_x1510/A VGND VPWR x3_x1511/A VGND VPWR sky130_fd_sc_hd__clkdlybuf4s50_2
Xx3_x1521 x3_x1521/A VGND VPWR x3_x1522/A VGND VPWR sky130_fd_sc_hd__clkdlybuf4s50_2
Xx3_x1532 x3_x1532/A VGND VPWR x3_x1533/A VGND VPWR sky130_fd_sc_hd__clkdlybuf4s50_2
Xx3_x1543 x3_x1543/A VGND VPWR x3_x1544/A VGND VPWR sky130_fd_sc_hd__clkdlybuf4s50_2
Xx3_x1598 x3_x1598/A VGND VPWR x3_x1599/A VGND VPWR sky130_fd_sc_hd__clkdlybuf4s50_2
Xx3_x1554 x3_x1554/A VGND VPWR x3_x1555/A VGND VPWR sky130_fd_sc_hd__clkdlybuf4s50_2
Xx3_x1565 x3_x1565/A VGND VPWR x3_x1566/A VGND VPWR sky130_fd_sc_hd__clkdlybuf4s50_2
Xx3_x1587 x3_x1587/A VGND VPWR x3_x1588/A VGND VPWR sky130_fd_sc_hd__clkdlybuf4s50_2
Xx3_x1576 x3_x1576/A VGND VPWR x3_x1577/A VGND VPWR sky130_fd_sc_hd__clkdlybuf4s50_2
XFILLER_43_80 VGND VPWR VGND VPWR sky130_fd_sc_hd__decap_6
Xx3_x1340 x3_x1340/A VGND VPWR x3_x1341/A VGND VPWR sky130_fd_sc_hd__clkdlybuf4s50_2
Xx3_x1351 x3_x1351/A VGND VPWR x3_x1352/A VGND VPWR sky130_fd_sc_hd__clkdlybuf4s50_2
Xx3_x1373 x3_x1373/A VGND VPWR x3_x1374/A VGND VPWR sky130_fd_sc_hd__clkdlybuf4s50_2
Xx3_x1395 x3_x1395/A VGND VPWR x3_x1396/A VGND VPWR sky130_fd_sc_hd__clkdlybuf4s50_2
Xx3_x1384 x3_x1384/A VGND VPWR x3_x1385/A VGND VPWR sky130_fd_sc_hd__clkdlybuf4s50_2
Xx3_x1362 x3_x1362/A VGND VPWR x3_x1363/A VGND VPWR sky130_fd_sc_hd__clkdlybuf4s50_2
XFILLER_34_38 VGND VPWR VGND VPWR sky130_fd_sc_hd__decap_3
Xx3_x1181 x3_x1181/A VGND VPWR x3_x1182/A VGND VPWR sky130_fd_sc_hd__clkdlybuf4s50_2
Xx3_x1170 x3_x1170/A VGND VPWR x3_x1171/A VGND VPWR sky130_fd_sc_hd__clkdlybuf4s50_2
Xx3_x1192 x3_x1192/A VGND VPWR x3_x1193/A VGND VPWR sky130_fd_sc_hd__clkdlybuf4s50_2
XFILLER_10_283 VGND VPWR VGND VPWR sky130_fd_sc_hd__decap_4
XFILLER_20_29 VGND VPWR VGND VPWR sky130_fd_sc_hd__decap_6
XFILLER_28_125 VGND VPWR VGND VPWR sky130_fd_sc_hd__decap_4
Xx1_x1596 x1_x1596/A VGND VPWR x1_x1597/A VGND VPWR sky130_fd_sc_hd__clkdlybuf4s50_2
Xx1_x1563 x1_x1563/A VGND VPWR x1_x1564/A VGND VPWR sky130_fd_sc_hd__clkdlybuf4s50_2
Xx1_x1585 x1_x1585/A VGND VPWR x1_x1586/A VGND VPWR sky130_fd_sc_hd__clkdlybuf4s50_2
Xx1_x1574 x1_x1574/A VGND VPWR x1_x1575/A VGND VPWR sky130_fd_sc_hd__clkdlybuf4s50_2
Xx1_x1552 x1_x1552/A VGND VPWR x1_x1553/A VGND VPWR sky130_fd_sc_hd__clkdlybuf4s50_2
Xx1_x1541 x1_x1541/A VGND VPWR x1_x1542/A VGND VPWR sky130_fd_sc_hd__clkdlybuf4s50_2
Xx1_x1530 x1_x1530/A VGND VPWR x1_x1531/A VGND VPWR sky130_fd_sc_hd__clkdlybuf4s50_2
XFILLER_32_3 VGND VPWR VGND VPWR sky130_fd_sc_hd__decap_3
XFILLER_24_161 VGND VPWR VGND VPWR sky130_fd_sc_hd__decap_4
Xx1_x1360 x1_x1360/A VGND VPWR x1_x1361/A VGND VPWR sky130_fd_sc_hd__clkdlybuf4s50_2
Xx1_x1393 x1_x1393/A VGND VPWR x1_x1394/A VGND VPWR sky130_fd_sc_hd__clkdlybuf4s50_2
Xx1_x1382 x1_x1382/A VGND VPWR x1_x1383/A VGND VPWR sky130_fd_sc_hd__clkdlybuf4s50_2
Xx1_x1371 x1_x1371/A VGND VPWR x1_x1372/A VGND VPWR sky130_fd_sc_hd__clkdlybuf4s50_2
XPHY_3 VGND VPWR VGND VPWR sky130_fd_sc_hd__decap_3
XFILLER_12_120 VGND VPWR VGND VPWR sky130_fd_sc_hd__decap_8
Xx1_x1190 x1_x1190/A VGND VPWR x1_x1191/A VGND VPWR sky130_fd_sc_hd__clkdlybuf4s50_2
XFILLER_35_234 VGND VPWR VGND VPWR sky130_fd_sc_hd__decap_4
Xx3_x1511 x3_x1511/A VGND VPWR x3_x1512/A VGND VPWR sky130_fd_sc_hd__clkdlybuf4s50_2
Xx3_x1500 x3_x1500/A VGND VPWR x3_x1501/A VGND VPWR sky130_fd_sc_hd__clkdlybuf4s50_2
Xx3_x1522 x3_x1522/A VGND VPWR x3_x1523/A VGND VPWR sky130_fd_sc_hd__clkdlybuf4s50_2
Xx3_x1533 x3_x1533/A VGND VPWR x3_x1534/A VGND VPWR sky130_fd_sc_hd__clkdlybuf4s50_2
Xx3_x1544 x3_x1544/A VGND VPWR x3_x1545/A VGND VPWR sky130_fd_sc_hd__clkdlybuf4s50_2
Xx3_x1555 x3_x1555/A VGND VPWR x3_x1556/A VGND VPWR sky130_fd_sc_hd__clkdlybuf4s50_2
Xx3_x1566 x3_x1566/A VGND VPWR x3_x1567/A VGND VPWR sky130_fd_sc_hd__clkdlybuf4s50_2
Xx3_x1577 x3_x1577/A VGND VPWR x3_x1578/A VGND VPWR sky130_fd_sc_hd__clkdlybuf4s50_2
Xx3_x1599 x3_x1599/A VGND VPWR x3_x1600/A VGND VPWR sky130_fd_sc_hd__clkdlybuf4s50_2
Xx3_x1588 x3_x1588/A VGND VPWR x3_x1589/A VGND VPWR sky130_fd_sc_hd__clkdlybuf4s50_2
XFILLER_31_281 VGND VPWR VGND VPWR sky130_fd_sc_hd__decap_6