*SPEF "ieee 1481-1999"
*DESIGN "adc_clkgen_with_edgedetect"
*DATE "11:11:11 Fri 11 11, 1111"
*VENDOR "OpenRCX"
*PROGRAM "Parallel Extraction"
*VERSION "1.0"
*DESIGN_FLOW "NAME_SCOPE LOCAL" "PIN_CAP NONE"
*DIVIDER /
*DELIMITER :
*BUS_DELIMITER []
*T_UNIT 1 NS
*C_UNIT 1 PF
*R_UNIT 1 OHM
*L_UNIT 1 HENRY

*NAME_MAP
*3 clk_comp
*4 clk_dig
*5 dlycontrol1[0]
*6 dlycontrol1[1]
*7 dlycontrol1[2]
*8 dlycontrol1[3]
*9 dlycontrol1[4]
*10 dlycontrol2[0]
*11 dlycontrol2[1]
*12 dlycontrol2[2]
*13 dlycontrol2[3]
*14 dlycontrol2[4]
*15 dlycontrol3[0]
*16 dlycontrol3[1]
*17 dlycontrol3[2]
*18 dlycontrol3[3]
*19 dlycontrol3[4]
*20 dlycontrol4[0]
*21 dlycontrol4[1]
*22 dlycontrol4[2]
*23 dlycontrol4[3]
*24 dlycontrol4[4]
*25 dlycontrol4[5]
*26 ena_in
*27 enable_dlycontrol
*28 ndecision_finish
*29 nsample_n
*30 nsample_n_buf
*31 nsample_p
*32 nsample_p_buf
*33 sample_n
*34 sample_n_buf
*35 sample_p
*36 sample_p_buf
*37 start_conv
*40 _000_
*41 _001_
*42 _002_
*43 _003_
*44 _004_
*45 _005_
*46 _006_
*47 _007_
*48 _008_
*49 _009_
*50 _010_
*51 _011_
*52 _012_
*53 _013_
*54 _014_
*55 _015_
*56 _016_
*57 _017_
*58 _018_
*59 _019_
*60 _020_
*61 _021_
*62 _022_
*63 _023_
*64 _024_
*65 _025_
*66 _026_
*67 _027_
*68 _028_
*69 _029_
*70 _030_
*71 _031_
*72 _032_
*73 _033_
*74 _034_
*75 _035_
*76 _036_
*77 _037_
*78 _038_
*79 _039_
*80 _040_
*81 _041_
*82 _042_
*83 _043_
*84 _044_
*85 _045_
*86 _046_
*87 _047_
*88 _048_
*89 _049_
*90 _050_
*91 _051_
*92 _052_
*93 _053_
*94 _054_
*95 _055_
*96 _056_
*97 _057_
*98 _058_
*99 _059_
*100 _060_
*101 _061_
*102 _062_
*103 _063_
*104 _064_
*105 _065_
*106 _066_
*107 _067_
*108 _068_
*109 _069_
*110 _070_
*111 _071_
*112 _072_
*113 _073_
*114 _074_
*115 _075_
*116 _076_
*117 _077_
*118 _078_
*119 _079_
*120 _080_
*121 _081_
*122 _082_
*123 _083_
*124 _084_
*125 _085_
*126 _086_
*127 _087_
*128 _088_
*129 _089_
*130 _090_
*131 _091_
*132 _092_
*133 _093_
*134 _094_
*135 _095_
*136 _096_
*137 _097_
*138 _098_
*139 _099_
*140 _100_
*141 _101_
*142 _102_
*143 _103_
*144 _104_
*145 _105_
*146 _106_
*147 _107_
*148 _108_
*149 _109_
*150 _110_
*151 _111_
*152 _112_
*153 _113_
*154 _114_
*155 _115_
*156 _116_
*157 _117_
*158 _118_
*159 _119_
*160 _120_
*161 _121_
*162 _122_
*163 _123_
*164 _124_
*165 _125_
*166 _126_
*167 _127_
*168 _128_
*169 _129_
*170 _130_
*171 _131_
*172 _132_
*173 _133_
*174 _134_
*175 _135_
*176 _136_
*177 _137_
*178 _138_
*179 _139_
*180 _140_
*181 _141_
*182 _142_
*183 _143_
*184 _144_
*185 _145_
*186 _146_
*187 _147_
*188 _148_
*189 _149_
*190 _150_
*191 _151_
*192 _152_
*193 _153_
*194 _154_
*195 _155_
*196 _156_
*197 _157_
*198 _158_
*199 _159_
*200 _160_
*201 _161_
*202 _162_
*203 _163_
*204 _164_
*205 _165_
*206 _166_
*207 _167_
*208 _168_
*209 _169_
*210 _170_
*211 _171_
*212 _172_
*213 _173_
*214 _174_
*215 _175_
*216 _176_
*217 _177_
*218 _178_
*219 _179_
*220 _180_
*221 _181_
*222 _182_
*223 _183_
*224 _184_
*225 _185_
*226 _186_
*227 _187_
*228 _188_
*229 _189_
*230 _190_
*231 _191_
*232 _192_
*233 _193_
*234 _194_
*235 _195_
*236 _196_
*237 _197_
*238 _198_
*239 _199_
*240 _200_
*241 _201_
*242 clkgen\.clk_comp
*243 clkgen\.clk_dig
*244 clkgen\.clk_dig_delayed
*245 clkgen\.delay_100ns_1\._siga_\[0\]
*246 clkgen\.delay_100ns_1\._siga_\[10\]
*247 clkgen\.delay_100ns_1\._siga_\[11\]
*248 clkgen\.delay_100ns_1\._siga_\[12\]
*249 clkgen\.delay_100ns_1\._siga_\[13\]
*250 clkgen\.delay_100ns_1\._siga_\[14\]
*251 clkgen\.delay_100ns_1\._siga_\[15\]
*252 clkgen\.delay_100ns_1\._siga_\[16\]
*253 clkgen\.delay_100ns_1\._siga_\[17\]
*254 clkgen\.delay_100ns_1\._siga_\[18\]
*255 clkgen\.delay_100ns_1\._siga_\[19\]
*256 clkgen\.delay_100ns_1\._siga_\[1\]
*257 clkgen\.delay_100ns_1\._siga_\[2\]
*258 clkgen\.delay_100ns_1\._siga_\[3\]
*259 clkgen\.delay_100ns_1\._siga_\[4\]
*260 clkgen\.delay_100ns_1\._siga_\[5\]
*261 clkgen\.delay_100ns_1\._siga_\[6\]
*262 clkgen\.delay_100ns_1\._siga_\[7\]
*263 clkgen\.delay_100ns_1\._siga_\[8\]
*264 clkgen\.delay_100ns_1\._siga_\[9\]
*265 clkgen\.delay_100ns_1\._sigb_\[0\]
*266 clkgen\.delay_100ns_1\._sigb_\[10\]
*267 clkgen\.delay_100ns_1\._sigb_\[11\]
*268 clkgen\.delay_100ns_1\._sigb_\[12\]
*269 clkgen\.delay_100ns_1\._sigb_\[13\]
*270 clkgen\.delay_100ns_1\._sigb_\[14\]
*271 clkgen\.delay_100ns_1\._sigb_\[15\]
*272 clkgen\.delay_100ns_1\._sigb_\[16\]
*273 clkgen\.delay_100ns_1\._sigb_\[17\]
*274 clkgen\.delay_100ns_1\._sigb_\[18\]
*275 clkgen\.delay_100ns_1\._sigb_\[19\]
*276 clkgen\.delay_100ns_1\._sigb_\[1\]
*277 clkgen\.delay_100ns_1\._sigb_\[2\]
*278 clkgen\.delay_100ns_1\._sigb_\[3\]
*279 clkgen\.delay_100ns_1\._sigb_\[4\]
*280 clkgen\.delay_100ns_1\._sigb_\[5\]
*281 clkgen\.delay_100ns_1\._sigb_\[6\]
*282 clkgen\.delay_100ns_1\._sigb_\[7\]
*283 clkgen\.delay_100ns_1\._sigb_\[8\]
*284 clkgen\.delay_100ns_1\._sigb_\[9\]
*285 clkgen\.delay_100ns_1\._sigc_\[0\]
*286 clkgen\.delay_100ns_1\._sigc_\[10\]
*287 clkgen\.delay_100ns_1\._sigc_\[11\]
*288 clkgen\.delay_100ns_1\._sigc_\[12\]
*289 clkgen\.delay_100ns_1\._sigc_\[13\]
*290 clkgen\.delay_100ns_1\._sigc_\[14\]
*291 clkgen\.delay_100ns_1\._sigc_\[15\]
*292 clkgen\.delay_100ns_1\._sigc_\[16\]
*293 clkgen\.delay_100ns_1\._sigc_\[17\]
*294 clkgen\.delay_100ns_1\._sigc_\[18\]
*295 clkgen\.delay_100ns_1\._sigc_\[19\]
*296 clkgen\.delay_100ns_1\._sigc_\[1\]
*297 clkgen\.delay_100ns_1\._sigc_\[2\]
*298 clkgen\.delay_100ns_1\._sigc_\[3\]
*299 clkgen\.delay_100ns_1\._sigc_\[4\]
*300 clkgen\.delay_100ns_1\._sigc_\[5\]
*301 clkgen\.delay_100ns_1\._sigc_\[6\]
*302 clkgen\.delay_100ns_1\._sigc_\[7\]
*303 clkgen\.delay_100ns_1\._sigc_\[8\]
*304 clkgen\.delay_100ns_1\._sigc_\[9\]
*305 clkgen\.delay_100ns_1\.out
*306 clkgen\.delay_100ns_2\._siga_\[10\]
*307 clkgen\.delay_100ns_2\._siga_\[11\]
*308 clkgen\.delay_100ns_2\._siga_\[12\]
*309 clkgen\.delay_100ns_2\._siga_\[13\]
*310 clkgen\.delay_100ns_2\._siga_\[14\]
*311 clkgen\.delay_100ns_2\._siga_\[15\]
*312 clkgen\.delay_100ns_2\._siga_\[16\]
*313 clkgen\.delay_100ns_2\._siga_\[17\]
*314 clkgen\.delay_100ns_2\._siga_\[18\]
*315 clkgen\.delay_100ns_2\._siga_\[19\]
*316 clkgen\.delay_100ns_2\._siga_\[1\]
*317 clkgen\.delay_100ns_2\._siga_\[2\]
*318 clkgen\.delay_100ns_2\._siga_\[3\]
*319 clkgen\.delay_100ns_2\._siga_\[4\]
*320 clkgen\.delay_100ns_2\._siga_\[5\]
*321 clkgen\.delay_100ns_2\._siga_\[6\]
*322 clkgen\.delay_100ns_2\._siga_\[7\]
*323 clkgen\.delay_100ns_2\._siga_\[8\]
*324 clkgen\.delay_100ns_2\._siga_\[9\]
*325 clkgen\.delay_100ns_2\._sigb_\[0\]
*326 clkgen\.delay_100ns_2\._sigb_\[10\]
*327 clkgen\.delay_100ns_2\._sigb_\[11\]
*328 clkgen\.delay_100ns_2\._sigb_\[12\]
*329 clkgen\.delay_100ns_2\._sigb_\[13\]
*330 clkgen\.delay_100ns_2\._sigb_\[14\]
*331 clkgen\.delay_100ns_2\._sigb_\[15\]
*332 clkgen\.delay_100ns_2\._sigb_\[16\]
*333 clkgen\.delay_100ns_2\._sigb_\[17\]
*334 clkgen\.delay_100ns_2\._sigb_\[18\]
*335 clkgen\.delay_100ns_2\._sigb_\[19\]
*336 clkgen\.delay_100ns_2\._sigb_\[1\]
*337 clkgen\.delay_100ns_2\._sigb_\[2\]
*338 clkgen\.delay_100ns_2\._sigb_\[3\]
*339 clkgen\.delay_100ns_2\._sigb_\[4\]
*340 clkgen\.delay_100ns_2\._sigb_\[5\]
*341 clkgen\.delay_100ns_2\._sigb_\[6\]
*342 clkgen\.delay_100ns_2\._sigb_\[7\]
*343 clkgen\.delay_100ns_2\._sigb_\[8\]
*344 clkgen\.delay_100ns_2\._sigb_\[9\]
*345 clkgen\.delay_100ns_2\._sigc_\[0\]
*346 clkgen\.delay_100ns_2\._sigc_\[10\]
*347 clkgen\.delay_100ns_2\._sigc_\[11\]
*348 clkgen\.delay_100ns_2\._sigc_\[12\]
*349 clkgen\.delay_100ns_2\._sigc_\[13\]
*350 clkgen\.delay_100ns_2\._sigc_\[14\]
*351 clkgen\.delay_100ns_2\._sigc_\[15\]
*352 clkgen\.delay_100ns_2\._sigc_\[16\]
*353 clkgen\.delay_100ns_2\._sigc_\[17\]
*354 clkgen\.delay_100ns_2\._sigc_\[18\]
*355 clkgen\.delay_100ns_2\._sigc_\[19\]
*356 clkgen\.delay_100ns_2\._sigc_\[1\]
*357 clkgen\.delay_100ns_2\._sigc_\[2\]
*358 clkgen\.delay_100ns_2\._sigc_\[3\]
*359 clkgen\.delay_100ns_2\._sigc_\[4\]
*360 clkgen\.delay_100ns_2\._sigc_\[5\]
*361 clkgen\.delay_100ns_2\._sigc_\[6\]
*362 clkgen\.delay_100ns_2\._sigc_\[7\]
*363 clkgen\.delay_100ns_2\._sigc_\[8\]
*364 clkgen\.delay_100ns_2\._sigc_\[9\]
*365 clkgen\.delay_100ns_3\._siga_\[0\]
*366 clkgen\.delay_100ns_3\._siga_\[10\]
*367 clkgen\.delay_100ns_3\._siga_\[11\]
*368 clkgen\.delay_100ns_3\._siga_\[12\]
*369 clkgen\.delay_100ns_3\._siga_\[13\]
*370 clkgen\.delay_100ns_3\._siga_\[14\]
*371 clkgen\.delay_100ns_3\._siga_\[15\]
*372 clkgen\.delay_100ns_3\._siga_\[16\]
*373 clkgen\.delay_100ns_3\._siga_\[17\]
*374 clkgen\.delay_100ns_3\._siga_\[18\]
*375 clkgen\.delay_100ns_3\._siga_\[19\]
*376 clkgen\.delay_100ns_3\._siga_\[1\]
*377 clkgen\.delay_100ns_3\._siga_\[2\]
*378 clkgen\.delay_100ns_3\._siga_\[3\]
*379 clkgen\.delay_100ns_3\._siga_\[4\]
*380 clkgen\.delay_100ns_3\._siga_\[5\]
*381 clkgen\.delay_100ns_3\._siga_\[6\]
*382 clkgen\.delay_100ns_3\._siga_\[7\]
*383 clkgen\.delay_100ns_3\._siga_\[8\]
*384 clkgen\.delay_100ns_3\._siga_\[9\]
*385 clkgen\.delay_100ns_3\._sigb_\[0\]
*386 clkgen\.delay_100ns_3\._sigb_\[10\]
*387 clkgen\.delay_100ns_3\._sigb_\[11\]
*388 clkgen\.delay_100ns_3\._sigb_\[12\]
*389 clkgen\.delay_100ns_3\._sigb_\[13\]
*390 clkgen\.delay_100ns_3\._sigb_\[14\]
*391 clkgen\.delay_100ns_3\._sigb_\[15\]
*392 clkgen\.delay_100ns_3\._sigb_\[16\]
*393 clkgen\.delay_100ns_3\._sigb_\[17\]
*394 clkgen\.delay_100ns_3\._sigb_\[18\]
*395 clkgen\.delay_100ns_3\._sigb_\[19\]
*396 clkgen\.delay_100ns_3\._sigb_\[1\]
*397 clkgen\.delay_100ns_3\._sigb_\[2\]
*398 clkgen\.delay_100ns_3\._sigb_\[3\]
*399 clkgen\.delay_100ns_3\._sigb_\[4\]
*400 clkgen\.delay_100ns_3\._sigb_\[5\]
*401 clkgen\.delay_100ns_3\._sigb_\[6\]
*402 clkgen\.delay_100ns_3\._sigb_\[7\]
*403 clkgen\.delay_100ns_3\._sigb_\[8\]
*404 clkgen\.delay_100ns_3\._sigb_\[9\]
*405 clkgen\.delay_100ns_3\._sigc_\[0\]
*406 clkgen\.delay_100ns_3\._sigc_\[10\]
*407 clkgen\.delay_100ns_3\._sigc_\[11\]
*408 clkgen\.delay_100ns_3\._sigc_\[12\]
*409 clkgen\.delay_100ns_3\._sigc_\[13\]
*410 clkgen\.delay_100ns_3\._sigc_\[14\]
*411 clkgen\.delay_100ns_3\._sigc_\[15\]
*412 clkgen\.delay_100ns_3\._sigc_\[16\]
*413 clkgen\.delay_100ns_3\._sigc_\[17\]
*414 clkgen\.delay_100ns_3\._sigc_\[18\]
*415 clkgen\.delay_100ns_3\._sigc_\[19\]
*416 clkgen\.delay_100ns_3\._sigc_\[1\]
*417 clkgen\.delay_100ns_3\._sigc_\[2\]
*418 clkgen\.delay_100ns_3\._sigc_\[3\]
*419 clkgen\.delay_100ns_3\._sigc_\[4\]
*420 clkgen\.delay_100ns_3\._sigc_\[5\]
*421 clkgen\.delay_100ns_3\._sigc_\[6\]
*422 clkgen\.delay_100ns_3\._sigc_\[7\]
*423 clkgen\.delay_100ns_3\._sigc_\[8\]
*424 clkgen\.delay_100ns_3\._sigc_\[9\]
*425 edgedetect\.dly200cell\._siga_\[0\]
*426 edgedetect\.dly200cell\._siga_\[10\]
*427 edgedetect\.dly200cell\._siga_\[11\]
*428 edgedetect\.dly200cell\._siga_\[12\]
*429 edgedetect\.dly200cell\._siga_\[13\]
*430 edgedetect\.dly200cell\._siga_\[14\]
*431 edgedetect\.dly200cell\._siga_\[15\]
*432 edgedetect\.dly200cell\._siga_\[16\]
*433 edgedetect\.dly200cell\._siga_\[17\]
*434 edgedetect\.dly200cell\._siga_\[18\]
*435 edgedetect\.dly200cell\._siga_\[19\]
*436 edgedetect\.dly200cell\._siga_\[1\]
*437 edgedetect\.dly200cell\._siga_\[20\]
*438 edgedetect\.dly200cell\._siga_\[21\]
*439 edgedetect\.dly200cell\._siga_\[22\]
*440 edgedetect\.dly200cell\._siga_\[23\]
*441 edgedetect\.dly200cell\._siga_\[24\]
*442 edgedetect\.dly200cell\._siga_\[25\]
*443 edgedetect\.dly200cell\._siga_\[26\]
*444 edgedetect\.dly200cell\._siga_\[27\]
*445 edgedetect\.dly200cell\._siga_\[28\]
*446 edgedetect\.dly200cell\._siga_\[29\]
*447 edgedetect\.dly200cell\._siga_\[2\]
*448 edgedetect\.dly200cell\._siga_\[30\]
*449 edgedetect\.dly200cell\._siga_\[31\]
*450 edgedetect\.dly200cell\._siga_\[32\]
*451 edgedetect\.dly200cell\._siga_\[33\]
*452 edgedetect\.dly200cell\._siga_\[34\]
*453 edgedetect\.dly200cell\._siga_\[35\]
*454 edgedetect\.dly200cell\._siga_\[36\]
*455 edgedetect\.dly200cell\._siga_\[37\]
*456 edgedetect\.dly200cell\._siga_\[38\]
*457 edgedetect\.dly200cell\._siga_\[39\]
*458 edgedetect\.dly200cell\._siga_\[3\]
*459 edgedetect\.dly200cell\._siga_\[4\]
*460 edgedetect\.dly200cell\._siga_\[5\]
*461 edgedetect\.dly200cell\._siga_\[6\]
*462 edgedetect\.dly200cell\._siga_\[7\]
*463 edgedetect\.dly200cell\._siga_\[8\]
*464 edgedetect\.dly200cell\._siga_\[9\]
*465 edgedetect\.dly200cell\._sigb_\[0\]
*466 edgedetect\.dly200cell\._sigb_\[10\]
*467 edgedetect\.dly200cell\._sigb_\[11\]
*468 edgedetect\.dly200cell\._sigb_\[12\]
*469 edgedetect\.dly200cell\._sigb_\[13\]
*470 edgedetect\.dly200cell\._sigb_\[14\]
*471 edgedetect\.dly200cell\._sigb_\[15\]
*472 edgedetect\.dly200cell\._sigb_\[16\]
*473 edgedetect\.dly200cell\._sigb_\[17\]
*474 edgedetect\.dly200cell\._sigb_\[18\]
*475 edgedetect\.dly200cell\._sigb_\[19\]
*476 edgedetect\.dly200cell\._sigb_\[1\]
*477 edgedetect\.dly200cell\._sigb_\[20\]
*478 edgedetect\.dly200cell\._sigb_\[21\]
*479 edgedetect\.dly200cell\._sigb_\[22\]
*480 edgedetect\.dly200cell\._sigb_\[23\]
*481 edgedetect\.dly200cell\._sigb_\[24\]
*482 edgedetect\.dly200cell\._sigb_\[25\]
*483 edgedetect\.dly200cell\._sigb_\[26\]
*484 edgedetect\.dly200cell\._sigb_\[27\]
*485 edgedetect\.dly200cell\._sigb_\[28\]
*486 edgedetect\.dly200cell\._sigb_\[29\]
*487 edgedetect\.dly200cell\._sigb_\[2\]
*488 edgedetect\.dly200cell\._sigb_\[30\]
*489 edgedetect\.dly200cell\._sigb_\[31\]
*490 edgedetect\.dly200cell\._sigb_\[32\]
*491 edgedetect\.dly200cell\._sigb_\[33\]
*492 edgedetect\.dly200cell\._sigb_\[34\]
*493 edgedetect\.dly200cell\._sigb_\[35\]
*494 edgedetect\.dly200cell\._sigb_\[36\]
*495 edgedetect\.dly200cell\._sigb_\[37\]
*496 edgedetect\.dly200cell\._sigb_\[38\]
*497 edgedetect\.dly200cell\._sigb_\[39\]
*498 edgedetect\.dly200cell\._sigb_\[3\]
*499 edgedetect\.dly200cell\._sigb_\[4\]
*500 edgedetect\.dly200cell\._sigb_\[5\]
*501 edgedetect\.dly200cell\._sigb_\[6\]
*502 edgedetect\.dly200cell\._sigb_\[7\]
*503 edgedetect\.dly200cell\._sigb_\[8\]
*504 edgedetect\.dly200cell\._sigb_\[9\]
*505 edgedetect\.dly200cell\._sigc_\[0\]
*506 edgedetect\.dly200cell\._sigc_\[10\]
*507 edgedetect\.dly200cell\._sigc_\[11\]
*508 edgedetect\.dly200cell\._sigc_\[12\]
*509 edgedetect\.dly200cell\._sigc_\[13\]
*510 edgedetect\.dly200cell\._sigc_\[14\]
*511 edgedetect\.dly200cell\._sigc_\[15\]
*512 edgedetect\.dly200cell\._sigc_\[16\]
*513 edgedetect\.dly200cell\._sigc_\[17\]
*514 edgedetect\.dly200cell\._sigc_\[18\]
*515 edgedetect\.dly200cell\._sigc_\[19\]
*516 edgedetect\.dly200cell\._sigc_\[1\]
*517 edgedetect\.dly200cell\._sigc_\[20\]
*518 edgedetect\.dly200cell\._sigc_\[21\]
*519 edgedetect\.dly200cell\._sigc_\[22\]
*520 edgedetect\.dly200cell\._sigc_\[23\]
*521 edgedetect\.dly200cell\._sigc_\[24\]
*522 edgedetect\.dly200cell\._sigc_\[25\]
*523 edgedetect\.dly200cell\._sigc_\[26\]
*524 edgedetect\.dly200cell\._sigc_\[27\]
*525 edgedetect\.dly200cell\._sigc_\[28\]
*526 edgedetect\.dly200cell\._sigc_\[29\]
*527 edgedetect\.dly200cell\._sigc_\[2\]
*528 edgedetect\.dly200cell\._sigc_\[30\]
*529 edgedetect\.dly200cell\._sigc_\[31\]
*530 edgedetect\.dly200cell\._sigc_\[32\]
*531 edgedetect\.dly200cell\._sigc_\[33\]
*532 edgedetect\.dly200cell\._sigc_\[34\]
*533 edgedetect\.dly200cell\._sigc_\[35\]
*534 edgedetect\.dly200cell\._sigc_\[36\]
*535 edgedetect\.dly200cell\._sigc_\[37\]
*536 edgedetect\.dly200cell\._sigc_\[38\]
*537 edgedetect\.dly200cell\._sigc_\[39\]
*538 edgedetect\.dly200cell\._sigc_\[3\]
*539 edgedetect\.dly200cell\._sigc_\[4\]
*540 edgedetect\.dly200cell\._sigc_\[5\]
*541 edgedetect\.dly200cell\._sigc_\[6\]
*542 edgedetect\.dly200cell\._sigc_\[7\]
*543 edgedetect\.dly200cell\._sigc_\[8\]
*544 edgedetect\.dly200cell\._sigc_\[9\]
*545 edgedetect\.dly200cell\.out
*546 edgedetect\.ena_in
*547 ANTENNA_1
*548 ANTENNA_10
*549 ANTENNA_11
*550 ANTENNA_12
*551 ANTENNA_13
*552 ANTENNA_14
*553 ANTENNA_2
*554 ANTENNA_3
*555 ANTENNA_4
*556 ANTENNA_5
*557 ANTENNA_6
*558 ANTENNA_7
*559 ANTENNA_8
*560 ANTENNA_9
*561 FILLER_0_121
*562 FILLER_0_125
*563 FILLER_0_14
*564 FILLER_0_152
*565 FILLER_0_156
*566 FILLER_0_169
*567 FILLER_0_173
*568 FILLER_0_18
*569 FILLER_0_183
*570 FILLER_0_187
*571 FILLER_0_214
*572 FILLER_0_218
*573 FILLER_0_245
*574 FILLER_0_249
*575 FILLER_0_276
*576 FILLER_0_280
*577 FILLER_0_29
*578 FILLER_0_3
*579 FILLER_0_308
*580 FILLER_0_311
*581 FILLER_0_319
*582 FILLER_0_32
*583 FILLER_0_328
*584 FILLER_0_337
*585 FILLER_0_342
*586 FILLER_0_349
*587 FILLER_0_60
*588 FILLER_0_63
*589 FILLER_0_90
*590 FILLER_0_94
*591 FILLER_10_100
*592 FILLER_10_106
*593 FILLER_10_135
*594 FILLER_10_148
*595 FILLER_10_154
*596 FILLER_10_156
*597 FILLER_10_16
*598 FILLER_10_171
*599 FILLER_10_200
*600 FILLER_10_209
*601 FILLER_10_218
*602 FILLER_10_245
*603 FILLER_10_251
*604 FILLER_10_277
*605 FILLER_10_280
*606 FILLER_10_286
*607 FILLER_10_29
*608 FILLER_10_3
*609 FILLER_10_312
*610 FILLER_10_32
*611 FILLER_10_325
*612 FILLER_10_329
*613 FILLER_10_339
*614 FILLER_10_342
*615 FILLER_10_353
*616 FILLER_10_59
*617 FILLER_10_65
*618 FILLER_10_91
*619 FILLER_10_94
*620 FILLER_11_103
*621 FILLER_11_112
*622 FILLER_11_121
*623 FILLER_11_125
*624 FILLER_11_136
*625 FILLER_11_140
*626 FILLER_11_144
*627 FILLER_11_173
*628 FILLER_11_18
*629 FILLER_11_184
*630 FILLER_11_187
*631 FILLER_11_216
*632 FILLER_11_220
*633 FILLER_11_230
*634 FILLER_11_243
*635 FILLER_11_247
*636 FILLER_11_249
*637 FILLER_11_260
*638 FILLER_11_273
*639 FILLER_11_286
*640 FILLER_11_295
*641 FILLER_11_3
*642 FILLER_11_304
*643 FILLER_11_311
*644 FILLER_11_338
*645 FILLER_11_347
*646 FILLER_11_354
*647 FILLER_11_47
*648 FILLER_11_60
*649 FILLER_11_63
*650 FILLER_11_9
*651 FILLER_11_90
*652 FILLER_12_105
*653 FILLER_12_134
*654 FILLER_12_147
*655 FILLER_12_156
*656 FILLER_12_16
*657 FILLER_12_162
*658 FILLER_12_175
*659 FILLER_12_183
*660 FILLER_12_194
*661 FILLER_12_198
*662 FILLER_12_208
*663 FILLER_12_215
*664 FILLER_12_218
*665 FILLER_12_246
*666 FILLER_12_275
*667 FILLER_12_280
*668 FILLER_12_287
*669 FILLER_12_29
*670 FILLER_12_294
*671 FILLER_12_3
*672 FILLER_12_301
*673 FILLER_12_309
*674 FILLER_12_315
*675 FILLER_12_32
*676 FILLER_12_322
*677 FILLER_12_331
*678 FILLER_12_338
*679 FILLER_12_342
*680 FILLER_12_349
*681 FILLER_12_43
*682 FILLER_12_49
*683 FILLER_12_55
*684 FILLER_12_64
*685 FILLER_12_73
*686 FILLER_12_86
*687 FILLER_12_92
*688 FILLER_12_94
*689 FILLER_13_106
*690 FILLER_13_113
*691 FILLER_13_122
*692 FILLER_13_125
*693 FILLER_13_136
*694 FILLER_13_14
*695 FILLER_13_140
*696 FILLER_13_146
*697 FILLER_13_175
*698 FILLER_13_184
*699 FILLER_13_187
*700 FILLER_13_192
*701 FILLER_13_201
*702 FILLER_13_214
*703 FILLER_13_221
*704 FILLER_13_234
*705 FILLER_13_243
*706 FILLER_13_247
*707 FILLER_13_249
*708 FILLER_13_256
*709 FILLER_13_263
*710 FILLER_13_267
*711 FILLER_13_293
*712 FILLER_13_3
*713 FILLER_13_300
*714 FILLER_13_307
*715 FILLER_13_311
*716 FILLER_13_322
*717 FILLER_13_355
*718 FILLER_13_43
*719 FILLER_13_47
*720 FILLER_13_51
*721 FILLER_13_60
*722 FILLER_13_63
*723 FILLER_13_67
*724 FILLER_13_93
*725 FILLER_14_101
*726 FILLER_14_105
*727 FILLER_14_111
*728 FILLER_14_140
*729 FILLER_14_153
*730 FILLER_14_156
*731 FILLER_14_16
*732 FILLER_14_160
*733 FILLER_14_186
*734 FILLER_14_215
*735 FILLER_14_218
*736 FILLER_14_245
*737 FILLER_14_252
*738 FILLER_14_263
*739 FILLER_14_272
*740 FILLER_14_278
*741 FILLER_14_280
*742 FILLER_14_29
*743 FILLER_14_291
*744 FILLER_14_298
*745 FILLER_14_3
*746 FILLER_14_302
*747 FILLER_14_32
*748 FILLER_14_328
*749 FILLER_14_335
*750 FILLER_14_342
*751 FILLER_14_347
*752 FILLER_14_354
*753 FILLER_14_36
*754 FILLER_14_62
*755 FILLER_14_91
*756 FILLER_14_94
*757 FILLER_15_110
*758 FILLER_15_121
*759 FILLER_15_125
*760 FILLER_15_132
*761 FILLER_15_139
*762 FILLER_15_148
*763 FILLER_15_157
*764 FILLER_15_170
*765 FILLER_15_174
*766 FILLER_15_184
*767 FILLER_15_187
*768 FILLER_15_192
*769 FILLER_15_200
*770 FILLER_15_207
*771 FILLER_15_215
*772 FILLER_15_241
*773 FILLER_15_247
*774 FILLER_15_249
*775 FILLER_15_256
*776 FILLER_15_285
*777 FILLER_15_292
*778 FILLER_15_299
*779 FILLER_15_3
*780 FILLER_15_308
*781 FILLER_15_311
*782 FILLER_15_32
*783 FILLER_15_338
*784 FILLER_15_347
*785 FILLER_15_354
*786 FILLER_15_45
*787 FILLER_15_54
*788 FILLER_15_63
*789 FILLER_15_74
*790 FILLER_15_78
*791 FILLER_15_88
*792 FILLER_15_97
*793 FILLER_16_108
*794 FILLER_16_121
*795 FILLER_16_13
*796 FILLER_16_130
*797 FILLER_16_139
*798 FILLER_16_150
*799 FILLER_16_154
*800 FILLER_16_156
*801 FILLER_16_164
*802 FILLER_16_171
*803 FILLER_16_180
*804 FILLER_16_187
*805 FILLER_16_198
*806 FILLER_16_205
*807 FILLER_16_212
*808 FILLER_16_216
*809 FILLER_16_218
*810 FILLER_16_22
*811 FILLER_16_222
*812 FILLER_16_228
*813 FILLER_16_234
*814 FILLER_16_260
*815 FILLER_16_277
*816 FILLER_16_280
*817 FILLER_16_285
*818 FILLER_16_29
*819 FILLER_16_292
*820 FILLER_16_299
*821 FILLER_16_3
*822 FILLER_16_306
*823 FILLER_16_312
*824 FILLER_16_32
*825 FILLER_16_322
*826 FILLER_16_335
*827 FILLER_16_342
*828 FILLER_16_353
*829 FILLER_16_39
*830 FILLER_16_43
*831 FILLER_16_49
*832 FILLER_16_58
*833 FILLER_16_67
*834 FILLER_16_7
*835 FILLER_16_76
*836 FILLER_16_85
*837 FILLER_16_94
*838 FILLER_16_99
*839 FILLER_17_101
*840 FILLER_17_105
*841 FILLER_17_112
*842 FILLER_17_119
*843 FILLER_17_12
*844 FILLER_17_123
*845 FILLER_17_125
*846 FILLER_17_131
*847 FILLER_17_135
*848 FILLER_17_142
*849 FILLER_17_148
*850 FILLER_17_152
*851 FILLER_17_159
*852 FILLER_17_163
*853 FILLER_17_167
*854 FILLER_17_173
*855 FILLER_17_177
*856 FILLER_17_184
*857 FILLER_17_187
*858 FILLER_17_192
*859 FILLER_17_199
*860 FILLER_17_206
*861 FILLER_17_21
*862 FILLER_17_212
*863 FILLER_17_216
*864 FILLER_17_222
*865 FILLER_17_226
*866 FILLER_17_230
*867 FILLER_17_240
*868 FILLER_17_249
*869 FILLER_17_260
*870 FILLER_17_267
*871 FILLER_17_274
*872 FILLER_17_281
*873 FILLER_17_288
*874 FILLER_17_295
*875 FILLER_17_3
*876 FILLER_17_30
*877 FILLER_17_302
*878 FILLER_17_311
*879 FILLER_17_316
*880 FILLER_17_323
*881 FILLER_17_330
*882 FILLER_17_337
*883 FILLER_17_34
*884 FILLER_17_344
*885 FILLER_17_351
*886 FILLER_17_38
*887 FILLER_17_42
*888 FILLER_17_46
*889 FILLER_17_53
*890 FILLER_17_60
*891 FILLER_17_63
*892 FILLER_17_74
*893 FILLER_17_80
*894 FILLER_17_86
*895 FILLER_17_93
*896 FILLER_18_108
*897 FILLER_18_11
*898 FILLER_18_115
*899 FILLER_18_122
*900 FILLER_18_131
*901 FILLER_18_139
*902 FILLER_18_144
*903 FILLER_18_151
*904 FILLER_18_156
*905 FILLER_18_162
*906 FILLER_18_169
*907 FILLER_18_176
*908 FILLER_18_18
*909 FILLER_18_183
*910 FILLER_18_190
*911 FILLER_18_198
*912 FILLER_18_203
*913 FILLER_18_210
*914 FILLER_18_216
*915 FILLER_18_218
*916 FILLER_18_223
*917 FILLER_18_230
*918 FILLER_18_237
*919 FILLER_18_243
*920 FILLER_18_249
*921 FILLER_18_256
*922 FILLER_18_263
*923 FILLER_18_27
*924 FILLER_18_270
*925 FILLER_18_277
*926 FILLER_18_280
*927 FILLER_18_285
*928 FILLER_18_292
*929 FILLER_18_299
*930 FILLER_18_3
*931 FILLER_18_306
*932 FILLER_18_313
*933 FILLER_18_32
*934 FILLER_18_320
*935 FILLER_18_329
*936 FILLER_18_338
*937 FILLER_18_342
*938 FILLER_18_347
*939 FILLER_18_354
*940 FILLER_18_42
*941 FILLER_18_47
*942 FILLER_18_54
*943 FILLER_18_61
*944 FILLER_18_68
*945 FILLER_18_7
*946 FILLER_18_75
*947 FILLER_18_79
*948 FILLER_18_83
*949 FILLER_18_90
*950 FILLER_18_94
*951 FILLER_18_99
*952 FILLER_19_100
*953 FILLER_19_107
*954 FILLER_19_114
*955 FILLER_19_118
*956 FILLER_19_12
*957 FILLER_19_122
*958 FILLER_19_125
*959 FILLER_19_130
*960 FILLER_19_137
*961 FILLER_19_144
*962 FILLER_19_152
*963 FILLER_19_156
*964 FILLER_19_162
*965 FILLER_19_166
*966 FILLER_19_173
*967 FILLER_19_180
*968 FILLER_19_187
*969 FILLER_19_19
*970 FILLER_19_192
*971 FILLER_19_199
*972 FILLER_19_206
*973 FILLER_19_213
*974 FILLER_19_220
*975 FILLER_19_229
*976 FILLER_19_233
*977 FILLER_19_237
*978 FILLER_19_244
*979 FILLER_19_249
*980 FILLER_19_254
*981 FILLER_19_26
*982 FILLER_19_261
*983 FILLER_19_268
*984 FILLER_19_275
*985 FILLER_19_282
*986 FILLER_19_287
*987 FILLER_19_291
*988 FILLER_19_296
*989 FILLER_19_3
*990 FILLER_19_303
*991 FILLER_19_309
*992 FILLER_19_311
*993 FILLER_19_316
*994 FILLER_19_324
*995 FILLER_19_328
*996 FILLER_19_33
*997 FILLER_19_335
*998 FILLER_19_344
*999 FILLER_19_351
*1000 FILLER_19_40
*1001 FILLER_19_48
*1002 FILLER_19_52
*1003 FILLER_19_59
*1004 FILLER_19_63
*1005 FILLER_19_74
*1006 FILLER_19_83
*1007 FILLER_19_90
*1008 FILLER_19_96
*1009 FILLER_1_122
*1010 FILLER_1_125
*1011 FILLER_1_154
*1012 FILLER_1_183
*1013 FILLER_1_187
*1014 FILLER_1_202
*1015 FILLER_1_231
*1016 FILLER_1_246
*1017 FILLER_1_249
*1018 FILLER_1_256
*1019 FILLER_1_260
*1020 FILLER_1_286
*1021 FILLER_1_299
*1022 FILLER_1_3
*1023 FILLER_1_308
*1024 FILLER_1_311
*1025 FILLER_1_322
*1026 FILLER_1_329
*1027 FILLER_1_33
*1028 FILLER_1_333
*1029 FILLER_1_340
*1030 FILLER_1_349
*1031 FILLER_1_37
*1032 FILLER_1_47
*1033 FILLER_1_60
*1034 FILLER_1_63
*1035 FILLER_1_67
*1036 FILLER_1_7
*1037 FILLER_1_93
*1038 FILLER_20_106
*1039 FILLER_20_113
*1040 FILLER_20_120
*1041 FILLER_20_125
*1042 FILLER_20_130
*1043 FILLER_20_138
*1044 FILLER_20_142
*1045 FILLER_20_149
*1046 FILLER_20_15
*1047 FILLER_20_156
*1048 FILLER_20_161
*1049 FILLER_20_168
*1050 FILLER_20_175
*1051 FILLER_20_182
*1052 FILLER_20_187
*1053 FILLER_20_192
*1054 FILLER_20_199
*1055 FILLER_20_206
*1056 FILLER_20_213
*1057 FILLER_20_218
*1058 FILLER_20_22
*1059 FILLER_20_226
*1060 FILLER_20_234
*1061 FILLER_20_238
*1062 FILLER_20_245
*1063 FILLER_20_249
*1064 FILLER_20_254
*1065 FILLER_20_261
*1066 FILLER_20_268
*1067 FILLER_20_275
*1068 FILLER_20_283
*1069 FILLER_20_287
*1070 FILLER_20_29
*1071 FILLER_20_292
*1072 FILLER_20_297
*1073 FILLER_20_3
*1074 FILLER_20_301
*1075 FILLER_20_306
*1076 FILLER_20_311
*1077 FILLER_20_319
*1078 FILLER_20_32
*1079 FILLER_20_326
*1080 FILLER_20_334
*1081 FILLER_20_338
*1082 FILLER_20_342
*1083 FILLER_20_347
*1084 FILLER_20_355
*1085 FILLER_20_37
*1086 FILLER_20_46
*1087 FILLER_20_53
*1088 FILLER_20_60
*1089 FILLER_20_63
*1090 FILLER_20_68
*1091 FILLER_20_75
*1092 FILLER_20_8
*1093 FILLER_20_82
*1094 FILLER_20_89
*1095 FILLER_20_94
*1096 FILLER_20_99
*1097 FILLER_2_105
*1098 FILLER_2_134
*1099 FILLER_2_14
*1100 FILLER_2_147
*1101 FILLER_2_156
*1102 FILLER_2_167
*1103 FILLER_2_171
*1104 FILLER_2_18
*1105 FILLER_2_197
*1106 FILLER_2_201
*1107 FILLER_2_205
*1108 FILLER_2_215
*1109 FILLER_2_218
*1110 FILLER_2_229
*1111 FILLER_2_258
*1112 FILLER_2_271
*1113 FILLER_2_280
*1114 FILLER_2_29
*1115 FILLER_2_3
*1116 FILLER_2_308
*1117 FILLER_2_32
*1118 FILLER_2_321
*1119 FILLER_2_330
*1120 FILLER_2_339
*1121 FILLER_2_342
*1122 FILLER_2_350
*1123 FILLER_2_356
*1124 FILLER_2_43
*1125 FILLER_2_56
*1126 FILLER_2_85
*1127 FILLER_2_94
*1128 FILLER_3_122
*1129 FILLER_3_125
*1130 FILLER_3_13
*1131 FILLER_3_154
*1132 FILLER_3_183
*1133 FILLER_3_187
*1134 FILLER_3_198
*1135 FILLER_3_227
*1136 FILLER_3_240
*1137 FILLER_3_249
*1138 FILLER_3_26
*1139 FILLER_3_276
*1140 FILLER_3_3
*1141 FILLER_3_305
*1142 FILLER_3_309
*1143 FILLER_3_311
*1144 FILLER_3_318
*1145 FILLER_3_347
*1146 FILLER_3_354
*1147 FILLER_3_55
*1148 FILLER_3_61
*1149 FILLER_3_63
*1150 FILLER_3_90
*1151 FILLER_3_96
*1152 FILLER_4_100
*1153 FILLER_4_129
*1154 FILLER_4_140
*1155 FILLER_4_153
*1156 FILLER_4_156
*1157 FILLER_4_16
*1158 FILLER_4_161
*1159 FILLER_4_174
*1160 FILLER_4_183
*1161 FILLER_4_196
*1162 FILLER_4_204
*1163 FILLER_4_215
*1164 FILLER_4_218
*1165 FILLER_4_245
*1166 FILLER_4_274
*1167 FILLER_4_278
*1168 FILLER_4_280
*1169 FILLER_4_29
*1170 FILLER_4_292
*1171 FILLER_4_3
*1172 FILLER_4_305
*1173 FILLER_4_314
*1174 FILLER_4_32
*1175 FILLER_4_323
*1176 FILLER_4_329
*1177 FILLER_4_339
*1178 FILLER_4_342
*1179 FILLER_4_353
*1180 FILLER_4_59
*1181 FILLER_4_65
*1182 FILLER_4_9
*1183 FILLER_4_91
*1184 FILLER_4_94
*1185 FILLER_5_103
*1186 FILLER_5_111
*1187 FILLER_5_122
*1188 FILLER_5_125
*1189 FILLER_5_129
*1190 FILLER_5_155
*1191 FILLER_5_184
*1192 FILLER_5_187
*1193 FILLER_5_192
*1194 FILLER_5_221
*1195 FILLER_5_234
*1196 FILLER_5_243
*1197 FILLER_5_247
*1198 FILLER_5_249
*1199 FILLER_5_261
*1200 FILLER_5_267
*1201 FILLER_5_293
*1202 FILLER_5_3
*1203 FILLER_5_302
*1204 FILLER_5_31
*1205 FILLER_5_311
*1206 FILLER_5_318
*1207 FILLER_5_347
*1208 FILLER_5_354
*1209 FILLER_5_60
*1210 FILLER_5_63
*1211 FILLER_5_74
*1212 FILLER_6_105
*1213 FILLER_6_134
*1214 FILLER_6_147
*1215 FILLER_6_156
*1216 FILLER_6_16
*1217 FILLER_6_183
*1218 FILLER_6_192
*1219 FILLER_6_199
*1220 FILLER_6_208
*1221 FILLER_6_215
*1222 FILLER_6_218
*1223 FILLER_6_229
*1224 FILLER_6_237
*1225 FILLER_6_263
*1226 FILLER_6_276
*1227 FILLER_6_280
*1228 FILLER_6_29
*1229 FILLER_6_3
*1230 FILLER_6_307
*1231 FILLER_6_313
*1232 FILLER_6_32
*1233 FILLER_6_339
*1234 FILLER_6_342
*1235 FILLER_6_353
*1236 FILLER_6_44
*1237 FILLER_6_73
*1238 FILLER_6_86
*1239 FILLER_6_92
*1240 FILLER_6_94
*1241 FILLER_7_103
*1242 FILLER_7_111
*1243 FILLER_7_122
*1244 FILLER_7_125
*1245 FILLER_7_152
*1246 FILLER_7_158
*1247 FILLER_7_17
*1248 FILLER_7_184
*1249 FILLER_7_187
*1250 FILLER_7_198
*1251 FILLER_7_206
*1252 FILLER_7_232
*1253 FILLER_7_245
*1254 FILLER_7_249
*1255 FILLER_7_260
*1256 FILLER_7_268
*1257 FILLER_7_295
*1258 FILLER_7_3
*1259 FILLER_7_308
*1260 FILLER_7_311
*1261 FILLER_7_326
*1262 FILLER_7_355
*1263 FILLER_7_46
*1264 FILLER_7_50
*1265 FILLER_7_60
*1266 FILLER_7_63
*1267 FILLER_7_8
*1268 FILLER_7_90
*1269 FILLER_8_108
*1270 FILLER_8_137
*1271 FILLER_8_150
*1272 FILLER_8_154
*1273 FILLER_8_156
*1274 FILLER_8_16
*1275 FILLER_8_161
*1276 FILLER_8_190
*1277 FILLER_8_203
*1278 FILLER_8_209
*1279 FILLER_8_215
*1280 FILLER_8_218
*1281 FILLER_8_230
*1282 FILLER_8_259
*1283 FILLER_8_268
*1284 FILLER_8_277
*1285 FILLER_8_280
*1286 FILLER_8_29
*1287 FILLER_8_291
*1288 FILLER_8_3
*1289 FILLER_8_300
*1290 FILLER_8_307
*1291 FILLER_8_32
*1292 FILLER_8_336
*1293 FILLER_8_340
*1294 FILLER_8_342
*1295 FILLER_8_353
*1296 FILLER_8_59
*1297 FILLER_8_65
*1298 FILLER_8_91
*1299 FILLER_8_94
*1300 FILLER_8_99
*1301 FILLER_9_103
*1302 FILLER_9_111
*1303 FILLER_9_122
*1304 FILLER_9_125
*1305 FILLER_9_13
*1306 FILLER_9_152
*1307 FILLER_9_183
*1308 FILLER_9_187
*1309 FILLER_9_198
*1310 FILLER_9_229
*1311 FILLER_9_242
*1312 FILLER_9_249
*1313 FILLER_9_256
*1314 FILLER_9_264
*1315 FILLER_9_290
*1316 FILLER_9_299
*1317 FILLER_9_3
*1318 FILLER_9_308
*1319 FILLER_9_311
*1320 FILLER_9_317
*1321 FILLER_9_343