* NGSPICE file created from adc_clkgen_with_edgedetect_native.ext - technology: sky130A

* Black-box entry subcircuit for sky130_fd_sc_hd__decap_4 abstract view
.subckt sky130_fd_sc_hd__decap_4 VGND VNB VPB VPWR
.ends

* Black-box entry subcircuit for sky130_fd_sc_hd__tapvpwrvgnd_1 abstract view
.subckt sky130_fd_sc_hd__tapvpwrvgnd_1 VGND VPWR
.ends

* Black-box entry subcircuit for sky130_fd_sc_hd__decap_6 abstract view
.subckt sky130_fd_sc_hd__decap_6 VGND VNB VPB VPWR
.ends

* Black-box entry subcircuit for sky130_fd_sc_hd__clkdlybuf4s50_2 abstract view
.subckt sky130_fd_sc_hd__clkdlybuf4s50_2 A VGND VNB VPB VPWR X
.ends

* Black-box entry subcircuit for sky130_fd_sc_hd__decap_8 abstract view
.subckt sky130_fd_sc_hd__decap_8 VGND VNB VPB VPWR
.ends

* Black-box entry subcircuit for sky130_ef_sc_hd__decap_12 abstract view
.subckt sky130_ef_sc_hd__decap_12 VGND VPWR VPB VNB
.ends

* Black-box entry subcircuit for sky130_fd_sc_hd__decap_3 abstract view
.subckt sky130_fd_sc_hd__decap_3 VGND VNB VPB VPWR
.ends

* Black-box entry subcircuit for sky130_fd_sc_hd__fill_2 abstract view
.subckt sky130_fd_sc_hd__fill_2 VGND VNB VPB VPWR
.ends

* Black-box entry subcircuit for sky130_fd_sc_hd__fill_1 abstract view
.subckt sky130_fd_sc_hd__fill_1 VGND VNB VPB VPWR
.ends

* Black-box entry subcircuit for sky130_fd_sc_hd__o21ba_2 abstract view
.subckt sky130_fd_sc_hd__o21ba_2 A1 A2 B1_N VGND VNB VPB VPWR X
.ends

* Black-box entry subcircuit for sky130_fd_sc_hd__and2b_2 abstract view
.subckt sky130_fd_sc_hd__and2b_2 A_N B VGND VNB VPB VPWR X
.ends

* Black-box entry subcircuit for sky130_fd_sc_hd__inv_2 abstract view
.subckt sky130_fd_sc_hd__inv_2 A VGND VNB VPB VPWR Y
.ends

.subckt adc_clkgen_with_edgedetect_native VGND VPWR clk_comp clk_dig comp_trig ena_in
+ start_conv
XFILLER_54_214 VGND VGND VPWR VPWR sky130_fd_sc_hd__decap_4
XTAP_177 VGND VPWR sky130_fd_sc_hd__tapvpwrvgnd_1
XTAP_188 VGND VPWR sky130_fd_sc_hd__tapvpwrvgnd_1
XTAP_199 VGND VPWR sky130_fd_sc_hd__tapvpwrvgnd_1
XFILLER_52_29 VGND VGND VPWR VPWR sky130_fd_sc_hd__decap_6
Xedgedetect.delay_200ns.genblk1\[294\].delay_unit edgedetect.delay_200ns.genblk1\[294\].delay_unit/A
+ VGND VGND VPWR VPWR edgedetect.delay_200ns.genblk1\[295\].delay_unit/A sky130_fd_sc_hd__clkdlybuf4s50_2
Xclkgen.delay_100ns_2.genblk1\[115\].delay_unit clkgen.delay_100ns_2.genblk1\[115\].delay_unit/A
+ VGND VGND VPWR VPWR clkgen.delay_100ns_2.genblk1\[116\].delay_unit/A sky130_fd_sc_hd__clkdlybuf4s50_2
XFILLER_22_188 VGND VGND VPWR VPWR sky130_fd_sc_hd__decap_8
Xclkgen.delay_100ns_1.genblk1\[149\].delay_unit clkgen.delay_100ns_1.genblk1\[149\].delay_unit/A
+ VGND VGND VPWR VPWR clkgen.delay_100ns_1.genblk1\[150\].delay_unit/A sky130_fd_sc_hd__clkdlybuf4s50_2
Xclkgen.delay_100ns_2.genblk1\[61\].delay_unit clkgen.delay_100ns_2.genblk1\[61\].delay_unit/A
+ VGND VGND VPWR VPWR clkgen.delay_100ns_2.genblk1\[62\].delay_unit/A sky130_fd_sc_hd__clkdlybuf4s50_2
XFILLER_45_247 VGND VGND VPWR VPWR sky130_fd_sc_hd__decap_4
XFILLER_26_85 VGND VGND VPWR VPWR sky130_fd_sc_hd__decap_8
XFILLER_26_41 VGND VGND VPWR VPWR sky130_fd_sc_hd__decap_4
Xclkgen.delay_100ns_1.genblk1\[9\].delay_unit clkgen.delay_100ns_1.genblk1\[9\].delay_unit/A
+ VGND VGND VPWR VPWR clkgen.delay_100ns_1.genblk1\[9\].delay_unit/X sky130_fd_sc_hd__clkdlybuf4s50_2
Xclkgen.delay_100ns_3.genblk1\[93\].delay_unit clkgen.delay_100ns_3.genblk1\[93\].delay_unit/A
+ VGND VGND VPWR VPWR clkgen.delay_100ns_3.genblk1\[94\].delay_unit/A sky130_fd_sc_hd__clkdlybuf4s50_2
Xclkgen.delay_100ns_1.genblk1\[151\].delay_unit clkgen.delay_100ns_1.genblk1\[151\].delay_unit/A
+ VGND VGND VPWR VPWR clkgen.delay_100ns_1.genblk1\[152\].delay_unit/A sky130_fd_sc_hd__clkdlybuf4s50_2
Xclkgen.delay_100ns_3.genblk1\[147\].delay_unit clkgen.delay_100ns_3.genblk1\[147\].delay_unit/A
+ VGND VGND VPWR VPWR clkgen.delay_100ns_3.genblk1\[148\].delay_unit/A sky130_fd_sc_hd__clkdlybuf4s50_2
Xclkgen.delay_100ns_1.genblk1\[95\].delay_unit clkgen.delay_100ns_1.genblk1\[95\].delay_unit/A
+ VGND VGND VPWR VPWR clkgen.delay_100ns_1.genblk1\[96\].delay_unit/A sky130_fd_sc_hd__clkdlybuf4s50_2
XFILLER_59_317 VGND VPWR VPWR VGND sky130_ef_sc_hd__decap_12
Xedgedetect.delay_200ns.genblk1\[174\].delay_unit edgedetect.delay_200ns.genblk1\[174\].delay_unit/A
+ VGND VGND VPWR VPWR edgedetect.delay_200ns.genblk1\[175\].delay_unit/A sky130_fd_sc_hd__clkdlybuf4s50_2
XFILLER_42_217 VGND VGND VPWR VPWR sky130_fd_sc_hd__decap_4
XFILLER_27_247 VGND VGND VPWR VPWR sky130_fd_sc_hd__decap_4
Xedgedetect.delay_200ns.genblk1\[473\].delay_unit edgedetect.delay_200ns.genblk1\[473\].delay_unit/A
+ VGND VGND VPWR VPWR edgedetect.delay_200ns.genblk1\[474\].delay_unit/A sky130_fd_sc_hd__clkdlybuf4s50_2
XFILLER_10_125 VGND VPWR VPWR VGND sky130_ef_sc_hd__decap_12
XFILLER_12_54 VGND VGND VPWR VPWR sky130_fd_sc_hd__decap_3
Xclkgen.delay_100ns_2.genblk1\[183\].delay_unit clkgen.delay_100ns_2.genblk1\[183\].delay_unit/A
+ VGND VGND VPWR VPWR clkgen.delay_100ns_2.genblk1\[184\].delay_unit/A sky130_fd_sc_hd__clkdlybuf4s50_2
XFILLER_18_214 VGND VGND VPWR VPWR sky130_fd_sc_hd__decap_4
XFILLER_37_95 VGND VGND VPWR VPWR sky130_fd_sc_hd__decap_4
XFILLER_33_206 VGND VGND VPWR VPWR sky130_fd_sc_hd__decap_4
XFILLER_49_372 VGND VGND VPWR VPWR sky130_fd_sc_hd__decap_4
XFILLER_24_206 VGND VGND VPWR VPWR sky130_fd_sc_hd__decap_6
Xedgedetect.delay_200ns.genblk1\[53\].delay_unit edgedetect.delay_200ns.genblk1\[53\].delay_unit/A
+ VGND VGND VPWR VPWR edgedetect.delay_200ns.genblk1\[54\].delay_unit/A sky130_fd_sc_hd__clkdlybuf4s50_2
XFILLER_32_294 VGND VPWR VPWR VGND sky130_ef_sc_hd__decap_12
Xedgedetect.delay_200ns.genblk1\[353\].delay_unit edgedetect.delay_200ns.genblk1\[353\].delay_unit/A
+ VGND VGND VPWR VPWR edgedetect.delay_200ns.genblk1\[354\].delay_unit/A sky130_fd_sc_hd__clkdlybuf4s50_2
XFILLER_59_125 VGND VPWR VPWR VGND sky130_ef_sc_hd__decap_12
Xclkgen.delay_100ns_1.genblk1\[208\].delay_unit clkgen.delay_100ns_1.genblk1\[208\].delay_unit/A
+ VGND VGND VPWR VPWR clkgen.delay_100ns_1.genblk1\[209\].delay_unit/A sky130_fd_sc_hd__clkdlybuf4s50_2
XFILLER_2_187 VGND VGND VPWR VPWR sky130_fd_sc_hd__decap_8
XFILLER_46_331 VGND VGND VPWR VPWR sky130_fd_sc_hd__decap_4
XFILLER_0_79 VGND VGND VPWR VPWR sky130_fd_sc_hd__decap_4
Xclkgen.delay_100ns_1.genblk1\[210\].delay_unit clkgen.delay_100ns_1.genblk1\[210\].delay_unit/A
+ VGND VGND VPWR VPWR clkgen.delay_100ns_1.genblk1\[211\].delay_unit/A sky130_fd_sc_hd__clkdlybuf4s50_2
XFILLER_9_77 VGND VGND VPWR VPWR sky130_fd_sc_hd__decap_8
XFILLER_50_3 VGND VGND VPWR VPWR sky130_fd_sc_hd__fill_2
Xclkgen.delay_100ns_3.genblk1\[206\].delay_unit clkgen.delay_100ns_3.genblk1\[206\].delay_unit/A
+ VGND VGND VPWR VPWR clkgen.delay_100ns_3.genblk1\[207\].delay_unit/A sky130_fd_sc_hd__clkdlybuf4s50_2
XFILLER_52_301 VGND VGND VPWR VPWR sky130_fd_sc_hd__decap_6
Xedgedetect.delay_200ns.genblk1\[233\].delay_unit edgedetect.delay_200ns.genblk1\[233\].delay_unit/A
+ VGND VGND VPWR VPWR edgedetect.delay_200ns.genblk1\[234\].delay_unit/A sky130_fd_sc_hd__clkdlybuf4s50_2
XFILLER_60_29 VGND VGND VPWR VPWR sky130_fd_sc_hd__fill_2
Xedgedetect.delay_200ns.genblk1\[532\].delay_unit edgedetect.delay_200ns.genblk1\[532\].delay_unit/A
+ VGND VGND VPWR VPWR edgedetect.delay_200ns.genblk1\[533\].delay_unit/A sky130_fd_sc_hd__clkdlybuf4s50_2
XFILLER_20_275 VGND VGND VPWR VPWR sky130_fd_sc_hd__decap_4
XFILLER_62_109 VGND VPWR VPWR VGND sky130_ef_sc_hd__decap_12
XFILLER_28_331 VGND VGND VPWR VPWR sky130_fd_sc_hd__decap_6
XFILLER_18_97 VGND VGND VPWR VPWR sky130_fd_sc_hd__decap_4
XFILLER_34_85 VGND VGND VPWR VPWR sky130_fd_sc_hd__decap_3
XFILLER_34_41 VGND VGND VPWR VPWR sky130_fd_sc_hd__decap_4
Xclkgen.delay_100ns_2.genblk1\[242\].delay_unit clkgen.delay_100ns_2.genblk1\[242\].delay_unit/A
+ VGND VGND VPWR VPWR clkgen.delay_100ns_2.genblk1\[243\].delay_unit/A sky130_fd_sc_hd__clkdlybuf4s50_2
XFILLER_11_220 VGND VGND VPWR VPWR sky130_fd_sc_hd__decap_4
XTAP_507 VGND VPWR sky130_fd_sc_hd__tapvpwrvgnd_1
XFILLER_7_279 VGND VGND VPWR VPWR sky130_fd_sc_hd__fill_1
Xclkgen.delay_100ns_3.genblk1\[32\].delay_unit clkgen.delay_100ns_3.genblk1\[32\].delay_unit/A
+ VGND VGND VPWR VPWR clkgen.delay_100ns_3.genblk1\[33\].delay_unit/A sky130_fd_sc_hd__clkdlybuf4s50_2
XTAP_529 VGND VPWR sky130_fd_sc_hd__tapvpwrvgnd_1
XTAP_518 VGND VPWR sky130_fd_sc_hd__tapvpwrvgnd_1
Xclkgen.delay_100ns_1.genblk1\[34\].delay_unit clkgen.delay_100ns_1.genblk1\[34\].delay_unit/A
+ VGND VGND VPWR VPWR clkgen.delay_100ns_1.genblk1\[35\].delay_unit/A sky130_fd_sc_hd__clkdlybuf4s50_2
XFILLER_46_150 VGND VGND VPWR VPWR sky130_fd_sc_hd__decap_4
XFILLER_34_301 VGND VGND VPWR VPWR sky130_fd_sc_hd__decap_6
Xedgedetect.delay_200ns.genblk1\[299\].delay_unit edgedetect.delay_200ns.genblk1\[299\].delay_unit/A
+ VGND VGND VPWR VPWR edgedetect.delay_200ns.genblk1\[300\].delay_unit/A sky130_fd_sc_hd__clkdlybuf4s50_2
Xedgedetect.delay_200ns.genblk1\[113\].delay_unit edgedetect.delay_200ns.genblk1\[113\].delay_unit/A
+ VGND VGND VPWR VPWR edgedetect.delay_200ns.genblk1\[114\].delay_unit/A sky130_fd_sc_hd__clkdlybuf4s50_2
Xedgedetect.delay_200ns.genblk1\[412\].delay_unit edgedetect.delay_200ns.genblk1\[412\].delay_unit/A
+ VGND VGND VPWR VPWR edgedetect.delay_200ns.genblk1\[413\].delay_unit/A sky130_fd_sc_hd__clkdlybuf4s50_2
Xclkgen.delay_100ns_2.genblk1\[66\].delay_unit clkgen.delay_100ns_2.genblk1\[66\].delay_unit/A
+ VGND VGND VPWR VPWR clkgen.delay_100ns_2.genblk1\[67\].delay_unit/A sky130_fd_sc_hd__clkdlybuf4s50_2
XFILLER_52_120 VGND VGND VPWR VPWR sky130_fd_sc_hd__decap_6
XFILLER_20_54 VGND VGND VPWR VPWR sky130_fd_sc_hd__decap_4
Xclkgen.delay_100ns_3.genblk1\[98\].delay_unit clkgen.delay_100ns_3.genblk1\[98\].delay_unit/A
+ VGND VGND VPWR VPWR clkgen.delay_100ns_3.genblk1\[99\].delay_unit/A sky130_fd_sc_hd__clkdlybuf4s50_2
XFILLER_29_52 VGND VGND VPWR VPWR sky130_fd_sc_hd__decap_4
Xclkgen.delay_100ns_2.genblk1\[122\].delay_unit clkgen.delay_100ns_2.genblk1\[122\].delay_unit/A
+ VGND VGND VPWR VPWR clkgen.delay_100ns_2.genblk1\[123\].delay_unit/A sky130_fd_sc_hd__clkdlybuf4s50_2
Xclkgen.delay_100ns_1.genblk1\[156\].delay_unit clkgen.delay_100ns_1.genblk1\[156\].delay_unit/A
+ VGND VGND VPWR VPWR clkgen.delay_100ns_1.genblk1\[157\].delay_unit/A sky130_fd_sc_hd__clkdlybuf4s50_2
XFILLER_45_95 VGND VGND VPWR VPWR sky130_fd_sc_hd__decap_4
XFILLER_43_164 VGND VGND VPWR VPWR sky130_fd_sc_hd__decap_4
XFILLER_16_301 VGND VGND VPWR VPWR sky130_fd_sc_hd__decap_6
XFILLER_31_337 VGND VGND VPWR VPWR sky130_fd_sc_hd__decap_8
XTAP_348 VGND VPWR sky130_fd_sc_hd__tapvpwrvgnd_1
XTAP_337 VGND VPWR sky130_fd_sc_hd__tapvpwrvgnd_1
XTAP_326 VGND VPWR sky130_fd_sc_hd__tapvpwrvgnd_1
XTAP_315 VGND VPWR sky130_fd_sc_hd__tapvpwrvgnd_1
XTAP_304 VGND VPWR sky130_fd_sc_hd__tapvpwrvgnd_1
XTAP_359 VGND VPWR sky130_fd_sc_hd__tapvpwrvgnd_1
Xedgedetect.delay_200ns.genblk1\[179\].delay_unit edgedetect.delay_200ns.genblk1\[179\].delay_unit/A
+ VGND VGND VPWR VPWR edgedetect.delay_200ns.genblk1\[180\].delay_unit/A sky130_fd_sc_hd__clkdlybuf4s50_2
XFILLER_13_3 VGND VGND VPWR VPWR sky130_fd_sc_hd__decap_6
XFILLER_19_150 VGND VGND VPWR VPWR sky130_fd_sc_hd__decap_4
XFILLER_34_197 VGND VGND VPWR VPWR sky130_fd_sc_hd__decap_4
Xedgedetect.delay_200ns.genblk1\[478\].delay_unit edgedetect.delay_200ns.genblk1\[478\].delay_unit/A
+ VGND VGND VPWR VPWR edgedetect.delay_200ns.genblk1\[479\].delay_unit/A sky130_fd_sc_hd__clkdlybuf4s50_2
XFILLER_19_194 VGND VGND VPWR VPWR sky130_fd_sc_hd__decap_8
Xclkgen.delay_100ns_3.genblk1\[154\].delay_unit clkgen.delay_100ns_3.genblk1\[154\].delay_unit/A
+ VGND VGND VPWR VPWR clkgen.delay_100ns_3.genblk1\[155\].delay_unit/A sky130_fd_sc_hd__clkdlybuf4s50_2
XFILLER_57_278 VGND VGND VPWR VPWR sky130_fd_sc_hd__fill_2
XFILLER_25_164 VGND VGND VPWR VPWR sky130_fd_sc_hd__decap_4
Xclkgen.delay_100ns_2.genblk1\[188\].delay_unit clkgen.delay_100ns_2.genblk1\[188\].delay_unit/A
+ VGND VGND VPWR VPWR clkgen.delay_100ns_2.genblk1\[189\].delay_unit/A sky130_fd_sc_hd__clkdlybuf4s50_2
XFILLER_40_134 VGND VGND VPWR VPWR sky130_fd_sc_hd__decap_6
Xedgedetect.delay_200ns.genblk1\[181\].delay_unit edgedetect.delay_200ns.genblk1\[181\].delay_unit/A
+ VGND VGND VPWR VPWR edgedetect.delay_200ns.genblk1\[182\].delay_unit/A sky130_fd_sc_hd__clkdlybuf4s50_2
Xedgedetect.delay_200ns.genblk1\[480\].delay_unit edgedetect.delay_200ns.genblk1\[480\].delay_unit/A
+ VGND VGND VPWR VPWR edgedetect.delay_200ns.genblk1\[481\].delay_unit/A sky130_fd_sc_hd__clkdlybuf4s50_2
XFILLER_63_237 VGND VPWR VPWR VGND sky130_ef_sc_hd__decap_12
XFILLER_48_212 VGND VGND VPWR VPWR sky130_fd_sc_hd__decap_4
XFILLER_16_153 VGND VGND VPWR VPWR sky130_fd_sc_hd__decap_4
XFILLER_16_197 VGND VGND VPWR VPWR sky130_fd_sc_hd__decap_8
Xedgedetect.delay_200ns.genblk1\[58\].delay_unit edgedetect.delay_200ns.genblk1\[58\].delay_unit/A
+ VGND VGND VPWR VPWR edgedetect.delay_200ns.genblk1\[59\].delay_unit/A sky130_fd_sc_hd__clkdlybuf4s50_2
XFILLER_8_363 VGND VGND VPWR VPWR sky130_fd_sc_hd__fill_1
Xclkgen.delay_100ns_2.genblk1\[190\].delay_unit clkgen.delay_100ns_2.genblk1\[190\].delay_unit/A
+ VGND VGND VPWR VPWR clkgen.delay_100ns_2.genblk1\[191\].delay_unit/A sky130_fd_sc_hd__clkdlybuf4s50_2
XFILLER_39_234 VGND VGND VPWR VPWR sky130_fd_sc_hd__decap_4
XFILLER_39_223 VGND VGND VPWR VPWR sky130_fd_sc_hd__fill_1
XTAP_167 VGND VPWR sky130_fd_sc_hd__tapvpwrvgnd_1
XTAP_156 VGND VPWR sky130_fd_sc_hd__tapvpwrvgnd_1
XTAP_134 VGND VPWR sky130_fd_sc_hd__tapvpwrvgnd_1
XTAP_145 VGND VPWR sky130_fd_sc_hd__tapvpwrvgnd_1
XTAP_178 VGND VPWR sky130_fd_sc_hd__tapvpwrvgnd_1
XTAP_189 VGND VPWR sky130_fd_sc_hd__tapvpwrvgnd_1
Xedgedetect.delay_200ns.genblk1\[358\].delay_unit edgedetect.delay_200ns.genblk1\[358\].delay_unit/A
+ VGND VGND VPWR VPWR edgedetect.delay_200ns.genblk1\[359\].delay_unit/A sky130_fd_sc_hd__clkdlybuf4s50_2
XFILLER_10_307 VGND VGND VPWR VPWR sky130_fd_sc_hd__fill_1
XFILLER_10_318 VGND VGND VPWR VPWR sky130_fd_sc_hd__decap_4
XFILLER_22_123 VGND VGND VPWR VPWR sky130_fd_sc_hd__decap_4
Xedgedetect.delay_200ns.genblk1\[60\].delay_unit edgedetect.delay_200ns.genblk1\[60\].delay_unit/A
+ VGND VGND VPWR VPWR edgedetect.delay_200ns.genblk1\[61\].delay_unit/A sky130_fd_sc_hd__clkdlybuf4s50_2
Xedgedetect.delay_200ns.genblk1\[360\].delay_unit edgedetect.delay_200ns.genblk1\[360\].delay_unit/A
+ VGND VGND VPWR VPWR edgedetect.delay_200ns.genblk1\[361\].delay_unit/A sky130_fd_sc_hd__clkdlybuf4s50_2
XFILLER_42_85 VGND VGND VPWR VPWR sky130_fd_sc_hd__decap_3
XFILLER_42_41 VGND VGND VPWR VPWR sky130_fd_sc_hd__decap_4
Xclkgen.delay_100ns_1.genblk1\[215\].delay_unit clkgen.delay_100ns_1.genblk1\[215\].delay_unit/A
+ VGND VGND VPWR VPWR clkgen.delay_100ns_1.genblk1\[216\].delay_unit/A sky130_fd_sc_hd__clkdlybuf4s50_2
XFILLER_3_79 VGND VGND VPWR VPWR sky130_fd_sc_hd__decap_4
XFILLER_51_207 VGND VPWR VPWR VGND sky130_ef_sc_hd__decap_12
Xedgedetect.delay_200ns.genblk1\[238\].delay_unit edgedetect.delay_200ns.genblk1\[238\].delay_unit/A
+ VGND VGND VPWR VPWR edgedetect.delay_200ns.genblk1\[239\].delay_unit/A sky130_fd_sc_hd__clkdlybuf4s50_2
Xedgedetect.delay_200ns.genblk1\[537\].delay_unit edgedetect.delay_200ns.genblk1\[537\].delay_unit/A
+ VGND VGND VPWR VPWR edgedetect.delay_200ns.genblk1\[538\].delay_unit/A sky130_fd_sc_hd__clkdlybuf4s50_2
XFILLER_59_329 VGND VGND VPWR VPWR sky130_fd_sc_hd__decap_6
XFILLER_27_204 VGND VGND VPWR VPWR sky130_fd_sc_hd__decap_4
XFILLER_63_29 VGND VPWR VPWR VGND sky130_ef_sc_hd__decap_12
Xclkgen.delay_100ns_3.genblk1\[213\].delay_unit clkgen.delay_100ns_3.genblk1\[213\].delay_unit/A
+ VGND VGND VPWR VPWR clkgen.delay_100ns_3.genblk1\[214\].delay_unit/A sky130_fd_sc_hd__clkdlybuf4s50_2
XFILLER_50_262 VGND VGND VPWR VPWR sky130_fd_sc_hd__decap_4
XFILLER_6_119 VGND VGND VPWR VPWR sky130_fd_sc_hd__decap_4
Xclkgen.delay_100ns_2.genblk1\[247\].delay_unit clkgen.delay_100ns_2.genblk1\[247\].delay_unit/A
+ VGND VGND VPWR VPWR clkgen.delay_100ns_2.genblk1\[248\].delay_unit/A sky130_fd_sc_hd__clkdlybuf4s50_2
XFILLER_10_104 VGND VPWR VPWR VGND sky130_ef_sc_hd__decap_12
XFILLER_10_137 VGND VGND VPWR VPWR sky130_fd_sc_hd__decap_3
XFILLER_12_66 VGND VGND VPWR VPWR sky130_fd_sc_hd__decap_4
Xedgedetect.delay_200ns.genblk1\[240\].delay_unit edgedetect.delay_200ns.genblk1\[240\].delay_unit/A
+ VGND VGND VPWR VPWR edgedetect.delay_200ns.genblk1\[241\].delay_unit/A sky130_fd_sc_hd__clkdlybuf4s50_2
Xclkgen.delay_100ns_3.genblk1\[37\].delay_unit clkgen.delay_100ns_3.genblk1\[37\].delay_unit/A
+ VGND VGND VPWR VPWR clkgen.delay_100ns_3.genblk1\[38\].delay_unit/A sky130_fd_sc_hd__clkdlybuf4s50_2
XFILLER_58_373 VGND VGND VPWR VPWR sky130_fd_sc_hd__decap_3
XFILLER_37_52 VGND VGND VPWR VPWR sky130_fd_sc_hd__decap_4
Xclkgen.delay_100ns_1.genblk1\[39\].delay_unit clkgen.delay_100ns_1.genblk1\[39\].delay_unit/A
+ VGND VGND VPWR VPWR clkgen.delay_100ns_1.genblk1\[40\].delay_unit/A sky130_fd_sc_hd__clkdlybuf4s50_2
XFILLER_53_51 VGND VGND VPWR VPWR sky130_fd_sc_hd__decap_4
XFILLER_41_273 VGND VGND VPWR VPWR sky130_fd_sc_hd__decap_6
Xedgedetect.delay_200ns.genblk1\[118\].delay_unit edgedetect.delay_200ns.genblk1\[118\].delay_unit/A
+ VGND VGND VPWR VPWR edgedetect.delay_200ns.genblk1\[119\].delay_unit/A sky130_fd_sc_hd__clkdlybuf4s50_2
Xedgedetect.delay_200ns.genblk1\[417\].delay_unit edgedetect.delay_200ns.genblk1\[417\].delay_unit/A
+ VGND VGND VPWR VPWR edgedetect.delay_200ns.genblk1\[418\].delay_unit/A sky130_fd_sc_hd__clkdlybuf4s50_2
XFILLER_32_262 VGND VGND VPWR VPWR sky130_fd_sc_hd__decap_8
XFILLER_59_137 VGND VPWR VPWR VGND sky130_ef_sc_hd__decap_12
XFILLER_58_29 VGND VGND VPWR VPWR sky130_fd_sc_hd__decap_3
Xclkgen.delay_100ns_1.genblk1\[41\].delay_unit clkgen.delay_100ns_1.genblk1\[41\].delay_unit/A
+ VGND VGND VPWR VPWR clkgen.delay_100ns_1.genblk1\[42\].delay_unit/A sky130_fd_sc_hd__clkdlybuf4s50_2
Xclkgen.delay_100ns_2.genblk1\[127\].delay_unit clkgen.delay_100ns_2.genblk1\[127\].delay_unit/A
+ VGND VGND VPWR VPWR clkgen.delay_100ns_2.genblk1\[128\].delay_unit/A sky130_fd_sc_hd__clkdlybuf4s50_2
Xedgedetect.delay_200ns.genblk1\[120\].delay_unit edgedetect.delay_200ns.genblk1\[120\].delay_unit/A
+ VGND VGND VPWR VPWR edgedetect.delay_200ns.genblk1\[121\].delay_unit/A sky130_fd_sc_hd__clkdlybuf4s50_2
XFILLER_23_273 VGND VGND VPWR VPWR sky130_fd_sc_hd__decap_6
Xclkgen.delay_100ns_2.genblk1\[73\].delay_unit clkgen.delay_100ns_2.genblk1\[73\].delay_unit/A
+ VGND VGND VPWR VPWR clkgen.delay_100ns_2.genblk1\[74\].delay_unit/A sky130_fd_sc_hd__clkdlybuf4s50_2
XFILLER_2_133 VGND VGND VPWR VPWR sky130_fd_sc_hd__decap_6
XFILLER_61_335 VGND VGND VPWR VPWR sky130_fd_sc_hd__fill_1
XFILLER_58_192 VGND VGND VPWR VPWR sky130_fd_sc_hd__decap_4
XFILLER_46_365 VGND VGND VPWR VPWR sky130_fd_sc_hd__decap_8
XFILLER_14_251 VGND VGND VPWR VPWR sky130_fd_sc_hd__fill_1
XFILLER_14_262 VGND VGND VPWR VPWR sky130_fd_sc_hd__decap_4
Xclkgen.delay_100ns_1.genblk1\[163\].delay_unit clkgen.delay_100ns_1.genblk1\[163\].delay_unit/A
+ VGND VGND VPWR VPWR clkgen.delay_100ns_1.genblk1\[164\].delay_unit/A sky130_fd_sc_hd__clkdlybuf4s50_2
XFILLER_43_3 VGND VGND VPWR VPWR sky130_fd_sc_hd__fill_1
Xclkgen.delay_100ns_3.genblk1\[159\].delay_unit clkgen.delay_100ns_3.genblk1\[159\].delay_unit/A
+ VGND VGND VPWR VPWR clkgen.delay_100ns_3.genblk1\[160\].delay_unit/A sky130_fd_sc_hd__clkdlybuf4s50_2
XFILLER_52_357 VGND VGND VPWR VPWR sky130_fd_sc_hd__decap_6
XFILLER_20_210 VGND VGND VPWR VPWR sky130_fd_sc_hd__decap_4
Xedgedetect.delay_200ns.genblk1\[186\].delay_unit edgedetect.delay_200ns.genblk1\[186\].delay_unit/A
+ VGND VGND VPWR VPWR edgedetect.delay_200ns.genblk1\[187\].delay_unit/A sky130_fd_sc_hd__clkdlybuf4s50_2
Xedgedetect.delay_200ns.genblk1\[3\].delay_unit edgedetect.delay_200ns.genblk1\[3\].delay_unit/A
+ VGND VGND VPWR VPWR edgedetect.delay_200ns.genblk1\[4\].delay_unit/A sky130_fd_sc_hd__clkdlybuf4s50_2
Xedgedetect.delay_200ns.genblk1\[485\].delay_unit edgedetect.delay_200ns.genblk1\[485\].delay_unit/A
+ VGND VGND VPWR VPWR edgedetect.delay_200ns.genblk1\[486\].delay_unit/A sky130_fd_sc_hd__clkdlybuf4s50_2
XFILLER_55_184 VGND VGND VPWR VPWR sky130_fd_sc_hd__decap_4
XFILLER_55_151 VGND VGND VPWR VPWR sky130_fd_sc_hd__decap_4
XFILLER_43_346 VGND VGND VPWR VPWR sky130_fd_sc_hd__decap_4
XFILLER_43_335 VGND VGND VPWR VPWR sky130_fd_sc_hd__fill_1
XFILLER_28_365 VGND VGND VPWR VPWR sky130_fd_sc_hd__decap_8
Xclkgen.delay_100ns_3.genblk1\[161\].delay_unit clkgen.delay_100ns_3.genblk1\[161\].delay_unit/A
+ VGND VGND VPWR VPWR clkgen.delay_100ns_3.genblk1\[162\].delay_unit/A sky130_fd_sc_hd__clkdlybuf4s50_2
XFILLER_50_41 VGND VPWR VPWR VGND sky130_ef_sc_hd__decap_12
XFILLER_34_97 VGND VGND VPWR VPWR sky130_fd_sc_hd__decap_4
XFILLER_7_225 VGND VGND VPWR VPWR sky130_fd_sc_hd__decap_6
XFILLER_11_265 VGND VPWR VPWR VGND sky130_ef_sc_hd__decap_12
XTAP_519 VGND VPWR sky130_fd_sc_hd__tapvpwrvgnd_1
XTAP_508 VGND VPWR sky130_fd_sc_hd__tapvpwrvgnd_1
XFILLER_50_85 VGND VGND VPWR VPWR sky130_fd_sc_hd__decap_3
Xclkgen.delay_100ns_2.genblk1\[195\].delay_unit clkgen.delay_100ns_2.genblk1\[195\].delay_unit/A
+ VGND VGND VPWR VPWR clkgen.delay_100ns_2.genblk1\[196\].delay_unit/A sky130_fd_sc_hd__clkdlybuf4s50_2
Xedgedetect.delay_200ns.genblk1\[65\].delay_unit edgedetect.delay_200ns.genblk1\[65\].delay_unit/A
+ VGND VGND VPWR VPWR edgedetect.delay_200ns.genblk1\[66\].delay_unit/A sky130_fd_sc_hd__clkdlybuf4s50_2
XFILLER_37_195 VGND VGND VPWR VPWR sky130_fd_sc_hd__decap_4
XFILLER_37_151 VGND VGND VPWR VPWR sky130_fd_sc_hd__decap_4
XFILLER_25_346 VGND VGND VPWR VPWR sky130_fd_sc_hd__decap_4
XFILLER_25_335 VGND VGND VPWR VPWR sky130_fd_sc_hd__fill_1
XFILLER_52_187 VGND VGND VPWR VPWR sky130_fd_sc_hd__decap_8
Xedgedetect.delay_200ns.genblk1\[365\].delay_unit edgedetect.delay_200ns.genblk1\[365\].delay_unit/A
+ VGND VGND VPWR VPWR edgedetect.delay_200ns.genblk1\[366\].delay_unit/A sky130_fd_sc_hd__clkdlybuf4s50_2
XFILLER_45_85 VGND VGND VPWR VPWR sky130_fd_sc_hd__fill_1
XFILLER_43_187 VGND VGND VPWR VPWR sky130_fd_sc_hd__decap_4
XFILLER_31_316 VGND VPWR VPWR VGND sky130_ef_sc_hd__decap_12
XFILLER_28_162 VGND VGND VPWR VPWR sky130_fd_sc_hd__decap_4
XFILLER_16_357 VGND VGND VPWR VPWR sky130_fd_sc_hd__decap_6
XTAP_349 VGND VPWR sky130_fd_sc_hd__tapvpwrvgnd_1
XTAP_338 VGND VPWR sky130_fd_sc_hd__tapvpwrvgnd_1
XTAP_327 VGND VPWR sky130_fd_sc_hd__tapvpwrvgnd_1
XTAP_316 VGND VPWR sky130_fd_sc_hd__tapvpwrvgnd_1
XTAP_305 VGND VPWR sky130_fd_sc_hd__tapvpwrvgnd_1
XFILLER_34_110 VGND VGND VPWR VPWR sky130_fd_sc_hd__decap_4
Xclkgen.delay_100ns_1.genblk1\[222\].delay_unit clkgen.delay_100ns_1.genblk1\[222\].delay_unit/A
+ VGND VGND VPWR VPWR clkgen.delay_100ns_1.genblk1\[223\].delay_unit/A sky130_fd_sc_hd__clkdlybuf4s50_2
Xclkgen.delay_100ns_3.genblk1\[218\].delay_unit clkgen.delay_100ns_3.genblk1\[218\].delay_unit/A
+ VGND VGND VPWR VPWR clkgen.delay_100ns_3.genblk1\[219\].delay_unit/A sky130_fd_sc_hd__clkdlybuf4s50_2
XFILLER_30_360 VGND VGND VPWR VPWR sky130_fd_sc_hd__decap_4
Xedgedetect.delay_200ns.genblk1\[245\].delay_unit edgedetect.delay_200ns.genblk1\[245\].delay_unit/A
+ VGND VGND VPWR VPWR edgedetect.delay_200ns.genblk1\[246\].delay_unit/A sky130_fd_sc_hd__clkdlybuf4s50_2
XFILLER_25_187 VGND VGND VPWR VPWR sky130_fd_sc_hd__decap_4
XFILLER_13_316 VGND VGND VPWR VPWR sky130_fd_sc_hd__decap_4
Xclkgen.delay_100ns_2.genblk1\[12\].delay_unit clkgen.delay_100ns_2.genblk1\[12\].delay_unit/A
+ VGND VGND VPWR VPWR clkgen.delay_100ns_2.genblk1\[13\].delay_unit/A sky130_fd_sc_hd__clkdlybuf4s50_2
Xclkgen.delay_100ns_3.genblk1\[220\].delay_unit clkgen.delay_100ns_3.genblk1\[220\].delay_unit/A
+ VGND VGND VPWR VPWR clkgen.delay_100ns_3.genblk1\[221\].delay_unit/A sky130_fd_sc_hd__clkdlybuf4s50_2
XFILLER_0_253 VGND VPWR VPWR VGND sky130_ef_sc_hd__decap_12
XFILLER_63_249 VGND VGND VPWR VPWR sky130_fd_sc_hd__decap_3
Xclkgen.delay_100ns_2.genblk1\[254\].delay_unit clkgen.delay_100ns_2.genblk1\[254\].delay_unit/A
+ VGND VGND VPWR VPWR clkgen.delay_100ns_2.genblk1\[255\].delay_unit/A sky130_fd_sc_hd__clkdlybuf4s50_2
XFILLER_16_110 VGND VGND VPWR VPWR sky130_fd_sc_hd__decap_4
XFILLER_31_113 VGND VGND VPWR VPWR sky130_fd_sc_hd__decap_3
Xclkgen.delay_100ns_3.genblk1\[44\].delay_unit clkgen.delay_100ns_3.genblk1\[44\].delay_unit/A
+ VGND VGND VPWR VPWR clkgen.delay_100ns_3.genblk1\[45\].delay_unit/A sky130_fd_sc_hd__clkdlybuf4s50_2
Xclkgen.delay_100ns_1.genblk1\[102\].delay_unit clkgen.delay_100ns_1.genblk1\[102\].delay_unit/A
+ VGND VGND VPWR VPWR clkgen.delay_100ns_1.genblk1\[103\].delay_unit/A sky130_fd_sc_hd__clkdlybuf4s50_2
XFILLER_8_331 VGND VGND VPWR VPWR sky130_fd_sc_hd__decap_4
Xclkgen.delay_100ns_1.genblk1\[46\].delay_unit clkgen.delay_100ns_1.genblk1\[46\].delay_unit/A
+ VGND VGND VPWR VPWR clkgen.delay_100ns_1.genblk1\[47\].delay_unit/A sky130_fd_sc_hd__clkdlybuf4s50_2
XFILLER_39_202 VGND VGND VPWR VPWR sky130_fd_sc_hd__decap_4
XTAP_168 VGND VPWR sky130_fd_sc_hd__tapvpwrvgnd_1
XTAP_157 VGND VPWR sky130_fd_sc_hd__tapvpwrvgnd_1
XTAP_146 VGND VPWR sky130_fd_sc_hd__tapvpwrvgnd_1
XTAP_135 VGND VPWR sky130_fd_sc_hd__tapvpwrvgnd_1
XTAP_179 VGND VPWR sky130_fd_sc_hd__tapvpwrvgnd_1
XFILLER_54_227 VGND VGND VPWR VPWR sky130_fd_sc_hd__decap_4
XFILLER_47_290 VGND VGND VPWR VPWR sky130_fd_sc_hd__decap_4
XFILLER_39_279 VGND VGND VPWR VPWR sky130_fd_sc_hd__fill_1
Xedgedetect.delay_200ns.genblk1\[125\].delay_unit edgedetect.delay_200ns.genblk1\[125\].delay_unit/A
+ VGND VGND VPWR VPWR edgedetect.delay_200ns.genblk1\[126\].delay_unit/A sky130_fd_sc_hd__clkdlybuf4s50_2
Xedgedetect.delay_200ns.genblk1\[424\].delay_unit edgedetect.delay_200ns.genblk1\[424\].delay_unit/A
+ VGND VGND VPWR VPWR edgedetect.delay_200ns.genblk1\[425\].delay_unit/A sky130_fd_sc_hd__clkdlybuf4s50_2
Xclkgen.delay_100ns_2.genblk1\[78\].delay_unit clkgen.delay_100ns_2.genblk1\[78\].delay_unit/A
+ VGND VGND VPWR VPWR clkgen.delay_100ns_2.genblk1\[79\].delay_unit/A sky130_fd_sc_hd__clkdlybuf4s50_2
Xclkgen.delay_100ns_3.genblk1\[100\].delay_unit clkgen.delay_100ns_3.genblk1\[99\].delay_unit/X
+ VGND VGND VPWR VPWR clkgen.delay_100ns_3.genblk1\[101\].delay_unit/A sky130_fd_sc_hd__clkdlybuf4s50_2
XFILLER_26_54 VGND VGND VPWR VPWR sky130_fd_sc_hd__decap_4
XFILLER_9_128 VGND VGND VPWR VPWR sky130_fd_sc_hd__decap_4
XFILLER_13_113 VGND VGND VPWR VPWR sky130_fd_sc_hd__fill_2
XFILLER_13_124 VGND VGND VPWR VPWR sky130_fd_sc_hd__decap_4
XFILLER_42_97 VGND VGND VPWR VPWR sky130_fd_sc_hd__decap_4
Xclkgen.delay_100ns_2.genblk1\[134\].delay_unit clkgen.delay_100ns_2.genblk1\[134\].delay_unit/A
+ VGND VGND VPWR VPWR clkgen.delay_100ns_2.genblk1\[135\].delay_unit/A sky130_fd_sc_hd__clkdlybuf4s50_2
Xclkgen.delay_100ns_1.genblk1\[168\].delay_unit clkgen.delay_100ns_1.genblk1\[168\].delay_unit/A
+ VGND VGND VPWR VPWR clkgen.delay_100ns_1.genblk1\[169\].delay_unit/A sky130_fd_sc_hd__clkdlybuf4s50_2
XFILLER_51_219 VGND VGND VPWR VPWR sky130_fd_sc_hd__decap_4
XFILLER_29_290 VGND VGND VPWR VPWR sky130_fd_sc_hd__decap_4
Xclkgen.delay_100ns_2.genblk1\[80\].delay_unit clkgen.delay_100ns_2.genblk1\[80\].delay_unit/A
+ VGND VGND VPWR VPWR clkgen.delay_100ns_2.genblk1\[81\].delay_unit/A sky130_fd_sc_hd__clkdlybuf4s50_2
XFILLER_8_150 VGND VGND VPWR VPWR sky130_fd_sc_hd__decap_4
Xedgedetect.delay_200ns.genblk1\[8\].delay_unit edgedetect.delay_200ns.genblk1\[8\].delay_unit/A
+ VGND VGND VPWR VPWR edgedetect.delay_200ns.genblk1\[9\].delay_unit/A sky130_fd_sc_hd__clkdlybuf4s50_2
Xclkgen.delay_100ns_3.genblk1\[2\].delay_unit clkgen.delay_100ns_3.genblk1\[2\].delay_unit/A
+ VGND VGND VPWR VPWR clkgen.delay_100ns_3.genblk1\[3\].delay_unit/A sky130_fd_sc_hd__clkdlybuf4s50_2
Xclkgen.delay_100ns_1.genblk1\[170\].delay_unit clkgen.delay_100ns_1.genblk1\[170\].delay_unit/A
+ VGND VGND VPWR VPWR clkgen.delay_100ns_1.genblk1\[171\].delay_unit/A sky130_fd_sc_hd__clkdlybuf4s50_2
Xedgedetect.delay_200ns.genblk1\[304\].delay_unit edgedetect.delay_200ns.genblk1\[304\].delay_unit/A
+ VGND VGND VPWR VPWR edgedetect.delay_200ns.genblk1\[305\].delay_unit/A sky130_fd_sc_hd__clkdlybuf4s50_2
Xclkgen.delay_100ns_3.genblk1\[166\].delay_unit clkgen.delay_100ns_3.genblk1\[166\].delay_unit/A
+ VGND VGND VPWR VPWR clkgen.delay_100ns_3.genblk1\[167\].delay_unit/A sky130_fd_sc_hd__clkdlybuf4s50_2
XFILLER_2_304 VGND VGND VPWR VPWR sky130_fd_sc_hd__decap_4
XFILLER_58_330 VGND VGND VPWR VPWR sky130_fd_sc_hd__decap_8
XFILLER_2_348 VGND VPWR VPWR VGND sky130_ef_sc_hd__decap_12
Xedgedetect.delay_200ns.genblk1\[193\].delay_unit edgedetect.delay_200ns.genblk1\[193\].delay_unit/A
+ VGND VGND VPWR VPWR edgedetect.delay_200ns.genblk1\[194\].delay_unit/A sky130_fd_sc_hd__clkdlybuf4s50_2
XFILLER_18_227 VGND VGND VPWR VPWR sky130_fd_sc_hd__decap_4
Xedgedetect.delay_200ns.genblk1\[492\].delay_unit edgedetect.delay_200ns.genblk1\[492\].delay_unit/A
+ VGND VGND VPWR VPWR edgedetect.delay_200ns.genblk1\[493\].delay_unit/A sky130_fd_sc_hd__clkdlybuf4s50_2
XFILLER_17_260 VGND VGND VPWR VPWR sky130_fd_sc_hd__decap_4
XFILLER_59_149 VGND VGND VPWR VPWR sky130_fd_sc_hd__decap_4
Xedgedetect.delay_200ns.genblk1\[72\].delay_unit edgedetect.delay_200ns.genblk1\[72\].delay_unit/A
+ VGND VGND VPWR VPWR edgedetect.delay_200ns.genblk1\[73\].delay_unit/A sky130_fd_sc_hd__clkdlybuf4s50_2
XFILLER_3_3 VGND VGND VPWR VPWR sky130_fd_sc_hd__decap_4
XFILLER_48_85 VGND VGND VPWR VPWR sky130_fd_sc_hd__decap_4
XFILLER_48_41 VGND VPWR VPWR VGND sky130_ef_sc_hd__decap_12
Xedgedetect.delay_200ns.genblk1\[372\].delay_unit edgedetect.delay_200ns.genblk1\[372\].delay_unit/A
+ VGND VGND VPWR VPWR edgedetect.delay_200ns.genblk1\[373\].delay_unit/A sky130_fd_sc_hd__clkdlybuf4s50_2
XFILLER_46_344 VGND VGND VPWR VPWR sky130_fd_sc_hd__decap_4
Xclkgen.delay_100ns_1.genblk1\[227\].delay_unit clkgen.delay_100ns_1.genblk1\[227\].delay_unit/A
+ VGND VGND VPWR VPWR clkgen.delay_100ns_1.genblk1\[228\].delay_unit/A sky130_fd_sc_hd__clkdlybuf4s50_2
XFILLER_9_13 VGND VGND VPWR VPWR sky130_fd_sc_hd__decap_6
XFILLER_9_57 VGND VGND VPWR VPWR sky130_fd_sc_hd__decap_8
XFILLER_36_3 VGND VPWR VPWR VGND sky130_ef_sc_hd__decap_12
Xclkgen.delay_100ns_3.genblk1\[225\].delay_unit clkgen.delay_100ns_3.genblk1\[225\].delay_unit/A
+ VGND VGND VPWR VPWR clkgen.delay_100ns_3.genblk1\[226\].delay_unit/A sky130_fd_sc_hd__clkdlybuf4s50_2