* NGSPICE file created from adc_edge_detect_circuit.ext - technology: sky130A

* Black-box entry subcircuit for sky130_ef_sc_hd__decap_12 abstract view
.subckt sky130_ef_sc_hd__decap_12 VGND VPWR VPB VNB
.ends

* Black-box entry subcircuit for sky130_fd_sc_hd__decap_6 abstract view
.subckt sky130_fd_sc_hd__decap_6 VGND VNB VPB VPWR
.ends

* Black-box entry subcircuit for sky130_fd_sc_hd__fill_1 abstract view
.subckt sky130_fd_sc_hd__fill_1 VGND VNB VPB VPWR
.ends

* Black-box entry subcircuit for sky130_fd_sc_hd__decap_3 abstract view
.subckt sky130_fd_sc_hd__decap_3 VGND VNB VPB VPWR
.ends

* Black-box entry subcircuit for sky130_fd_sc_hd__tapvpwrvgnd_1 abstract view
.subckt sky130_fd_sc_hd__tapvpwrvgnd_1 VGND VPWR
.ends

* Black-box entry subcircuit for sky130_fd_sc_hd__decap_8 abstract view
.subckt sky130_fd_sc_hd__decap_8 VGND VNB VPB VPWR
.ends

* Black-box entry subcircuit for sky130_fd_sc_hd__decap_4 abstract view
.subckt sky130_fd_sc_hd__decap_4 VGND VNB VPB VPWR
.ends

* Black-box entry subcircuit for sky130_mm_sc_hd_dly5ns abstract view
.subckt sky130_mm_sc_hd_dly5ns in out VPWR VGND VPB VNB
.ends

* Black-box entry subcircuit for sky130_fd_sc_hd__buf_1 abstract view
.subckt sky130_fd_sc_hd__buf_1 A VGND VNB VPB VPWR X
.ends

* Black-box entry subcircuit for sky130_fd_sc_hd__and2b_2 abstract view
.subckt sky130_fd_sc_hd__and2b_2 A_N B VGND VNB VPB VPWR X
.ends

.subckt adc_edge_detect_circuit VGND VPWR ena_in ena_out start_conv
XFILLER_22_177 VGND VPWR VPWR VGND sky130_ef_sc_hd__decap_12
XFILLER_22_133 VGND VGND VPWR VPWR sky130_fd_sc_hd__decap_6
XFILLER_26_85 VGND VPWR VPWR VGND sky130_ef_sc_hd__decap_12
XFILLER_26_41 VGND VPWR VPWR VGND sky130_ef_sc_hd__decap_12
XFILLER_9_137 VGND VPWR VPWR VGND sky130_ef_sc_hd__decap_12
XFILLER_13_111 VGND VGND VPWR VPWR sky130_fd_sc_hd__fill_1
XFILLER_12_65 VGND VPWR VPWR VGND sky130_ef_sc_hd__decap_12
XFILLER_2_165 VGND VPWR VPWR VGND sky130_ef_sc_hd__decap_12
XFILLER_2_121 VGND VPWR VPWR VGND sky130_ef_sc_hd__decap_12
XFILLER_0_57 VGND VPWR VPWR VGND sky130_ef_sc_hd__decap_12
XFILLER_9_55 VGND VGND VPWR VPWR sky130_fd_sc_hd__fill_1
XFILLER_18_97 VGND VPWR VPWR VGND sky130_ef_sc_hd__decap_12
XFILLER_18_53 VGND VPWR VPWR VGND sky130_ef_sc_hd__decap_12
XFILLER_20_65 VGND VPWR VPWR VGND sky130_ef_sc_hd__decap_12
XFILLER_26_109 VGND VPWR VPWR VGND sky130_ef_sc_hd__decap_12
XFILLER_19_161 VGND VGND VPWR VPWR sky130_fd_sc_hd__decap_6
XFILLER_13_3 VGND VGND VPWR VPWR sky130_fd_sc_hd__decap_3
XFILLER_16_153 VGND VPWR VPWR VGND sky130_ef_sc_hd__decap_12
XTAP_145 VGND VPWR sky130_fd_sc_hd__tapvpwrvgnd_1
XTAP_134 VGND VPWR sky130_fd_sc_hd__tapvpwrvgnd_1
XFILLER_22_189 VGND VGND VPWR VPWR sky130_fd_sc_hd__fill_1
XTAP_123 VGND VPWR sky130_fd_sc_hd__tapvpwrvgnd_1
XTAP_112 VGND VPWR sky130_fd_sc_hd__tapvpwrvgnd_1
XTAP_101 VGND VPWR sky130_fd_sc_hd__tapvpwrvgnd_1
XFILLER_26_97 VGND VPWR VPWR VGND sky130_ef_sc_hd__decap_12
XFILLER_26_53 VGND VPWR VPWR VGND sky130_ef_sc_hd__decap_12
XFILLER_3_57 VGND VPWR VPWR VGND sky130_ef_sc_hd__decap_12
XFILLER_9_105 VGND VGND VPWR VPWR sky130_fd_sc_hd__decap_6
XFILLER_9_149 VGND VPWR VPWR VGND sky130_ef_sc_hd__decap_12
XFILLER_13_167 VGND VGND VPWR VPWR sky130_fd_sc_hd__fill_1
XFILLER_13_189 VGND VGND VPWR VPWR sky130_fd_sc_hd__fill_1
XFILLER_12_77 VGND VGND VPWR VPWR sky130_fd_sc_hd__decap_6
XFILLER_2_177 VGND VPWR VPWR VGND sky130_ef_sc_hd__decap_12
XFILLER_2_133 VGND VGND VPWR VPWR sky130_fd_sc_hd__decap_6
XFILLER_0_69 VGND VPWR VPWR VGND sky130_ef_sc_hd__decap_12
XFILLER_18_65 VGND VPWR VPWR VGND sky130_ef_sc_hd__decap_12
XFILLER_20_77 VGND VGND VPWR VPWR sky130_fd_sc_hd__decap_6
XFILLER_15_55 VGND VGND VPWR VPWR sky130_fd_sc_hd__fill_1
XFILLER_16_165 VGND VPWR VPWR VGND sky130_ef_sc_hd__decap_12
XFILLER_16_121 VGND VPWR VPWR VGND sky130_ef_sc_hd__decap_12
XTAP_135 VGND VPWR sky130_fd_sc_hd__tapvpwrvgnd_1
XTAP_124 VGND VPWR sky130_fd_sc_hd__tapvpwrvgnd_1
XTAP_113 VGND VPWR sky130_fd_sc_hd__tapvpwrvgnd_1
XTAP_102 VGND VPWR sky130_fd_sc_hd__tapvpwrvgnd_1
XFILLER_26_65 VGND VPWR VPWR VGND sky130_ef_sc_hd__decap_12
XFILLER_13_113 VGND VPWR VPWR VGND sky130_ef_sc_hd__decap_12
XFILLER_3_69 VGND VPWR VPWR VGND sky130_ef_sc_hd__decap_12
XFILLER_6_109 VGND VPWR VPWR VGND sky130_ef_sc_hd__decap_12
XFILLER_23_55 VGND VGND VPWR VPWR sky130_fd_sc_hd__fill_1
XFILLER_3_3 VGND VPWR VPWR VGND sky130_ef_sc_hd__decap_12
XFILLER_2_189 VGND VGND VPWR VPWR sky130_fd_sc_hd__fill_1
XFILLER_0_15 VGND VPWR VPWR VGND sky130_ef_sc_hd__decap_12
XFILLER_9_57 VGND VPWR VPWR VGND sky130_ef_sc_hd__decap_12
XFILLER_18_77 VGND VGND VPWR VPWR sky130_fd_sc_hd__decap_6
XFILLER_25_111 VGND VGND VPWR VPWR sky130_fd_sc_hd__fill_1
XFILLER_16_133 VGND VGND VPWR VPWR sky130_fd_sc_hd__decap_6
XTAP_136 VGND VPWR sky130_fd_sc_hd__tapvpwrvgnd_1
XTAP_125 VGND VPWR sky130_fd_sc_hd__tapvpwrvgnd_1
XTAP_114 VGND VPWR sky130_fd_sc_hd__tapvpwrvgnd_1
XFILLER_16_177 VGND VPWR VPWR VGND sky130_ef_sc_hd__decap_12
XTAP_103 VGND VPWR sky130_fd_sc_hd__tapvpwrvgnd_1
XFILLER_26_77 VGND VGND VPWR VPWR sky130_fd_sc_hd__decap_6
XFILLER_13_125 VGND VPWR VPWR VGND sky130_ef_sc_hd__decap_12
XFILLER_13_169 VGND VPWR VPWR VGND sky130_ef_sc_hd__decap_12
XFILLER_3_15 VGND VPWR VPWR VGND sky130_ef_sc_hd__decap_12
XFILLER_10_139 VGND VGND VPWR VPWR sky130_fd_sc_hd__fill_1
XFILLER_0_27 VGND VGND VPWR VPWR sky130_fd_sc_hd__fill_1
XFILLER_9_69 VGND VPWR VPWR VGND sky130_ef_sc_hd__decap_12
XFILLER_1_81 VGND VPWR VPWR VGND sky130_ef_sc_hd__decap_12
XFILLER_6_15 VGND VPWR VPWR VGND sky130_ef_sc_hd__decap_12
XFILLER_25_189 VGND VGND VPWR VPWR sky130_fd_sc_hd__fill_1
XFILLER_25_167 VGND VGND VPWR VPWR sky130_fd_sc_hd__fill_1
XFILLER_15_57 VGND VPWR VPWR VGND sky130_ef_sc_hd__decap_12
XTAP_137 VGND VPWR sky130_fd_sc_hd__tapvpwrvgnd_1
XTAP_126 VGND VPWR sky130_fd_sc_hd__tapvpwrvgnd_1
XTAP_115 VGND VPWR sky130_fd_sc_hd__tapvpwrvgnd_1
XFILLER_16_189 VGND VGND VPWR VPWR sky130_fd_sc_hd__fill_1
XTAP_104 VGND VPWR sky130_fd_sc_hd__tapvpwrvgnd_1
XFILLER_21_181 VGND VGND VPWR VPWR sky130_fd_sc_hd__decap_8
XFILLER_3_27 VGND VPWR VPWR VGND sky130_ef_sc_hd__decap_12
XFILLER_13_137 VGND VPWR VPWR VGND sky130_ef_sc_hd__decap_12
XFILLER_8_141 VGND VPWR VPWR VGND sky130_ef_sc_hd__decap_12
XFILLER_5_111 VGND VGND VPWR VPWR sky130_fd_sc_hd__fill_1
XFILLER_23_57 VGND VPWR VPWR VGND sky130_ef_sc_hd__decap_12
XFILLER_9_15 VGND VPWR VPWR VGND sky130_ef_sc_hd__decap_12
XFILLER_1_93 VGND VPWR VPWR VGND sky130_ef_sc_hd__decap_12
XFILLER_6_27 VGND VGND VPWR VPWR sky130_fd_sc_hd__fill_1
XFILLER_25_113 VGND VPWR VPWR VGND sky130_ef_sc_hd__decap_12
XFILLER_15_69 VGND VPWR VPWR VGND sky130_ef_sc_hd__decap_12
XTAP_138 VGND VPWR sky130_fd_sc_hd__tapvpwrvgnd_1
XTAP_127 VGND VPWR sky130_fd_sc_hd__tapvpwrvgnd_1
XTAP_116 VGND VPWR sky130_fd_sc_hd__tapvpwrvgnd_1
XTAP_105 VGND VPWR sky130_fd_sc_hd__tapvpwrvgnd_1
XFILLER_7_81 VGND VPWR VPWR VGND sky130_ef_sc_hd__decap_12
XFILLER_3_39 VGND VPWR VPWR VGND sky130_ef_sc_hd__decap_12
XFILLER_13_105 VGND VGND VPWR VPWR sky130_fd_sc_hd__decap_6
XFILLER_13_149 VGND VPWR VPWR VGND sky130_ef_sc_hd__decap_12
XFILLER_8_153 VGND VPWR VPWR VGND sky130_ef_sc_hd__decap_12
XFILLER_12_15 VGND VPWR VPWR VGND sky130_ef_sc_hd__decap_12
XFILLER_12_37 VGND VGND VPWR VPWR sky130_fd_sc_hd__fill_1
XFILLER_5_167 VGND VGND VPWR VPWR sky130_fd_sc_hd__fill_1
XFILLER_5_189 VGND VGND VPWR VPWR sky130_fd_sc_hd__fill_1
XFILLER_23_69 VGND VPWR VPWR VGND sky130_ef_sc_hd__decap_12
XFILLER_0_29 VGND VPWR VPWR VGND sky130_ef_sc_hd__decap_12
XFILLER_9_27 VGND VPWR VPWR VGND sky130_ef_sc_hd__decap_12
XFILLER_1_181 VGND VGND VPWR VPWR sky130_fd_sc_hd__decap_8
XFILLER_1_3 VGND VPWR VPWR VGND sky130_ef_sc_hd__decap_12
XFILLER_20_15 VGND VPWR VPWR VGND sky130_ef_sc_hd__decap_12
XFILLER_19_111 VGND VGND VPWR VPWR sky130_fd_sc_hd__fill_1
XFILLER_25_169 VGND VPWR VPWR VGND sky130_ef_sc_hd__decap_12
XFILLER_25_125 VGND VPWR VPWR VGND sky130_ef_sc_hd__decap_12
XFILLER_15_15 VGND VPWR VPWR VGND sky130_ef_sc_hd__decap_12
XTAP_139 VGND VPWR sky130_fd_sc_hd__tapvpwrvgnd_1
XTAP_128 VGND VPWR sky130_fd_sc_hd__tapvpwrvgnd_1
XFILLER_22_139 VGND VGND VPWR VPWR sky130_fd_sc_hd__fill_1
XTAP_117 VGND VPWR sky130_fd_sc_hd__tapvpwrvgnd_1
XTAP_106 VGND VPWR sky130_fd_sc_hd__tapvpwrvgnd_1
XPHY_0 VGND VGND VPWR VPWR sky130_fd_sc_hd__decap_3
XFILLER_7_93 VGND VPWR VPWR VGND sky130_ef_sc_hd__decap_12
XFILLER_21_161 VGND VGND VPWR VPWR sky130_fd_sc_hd__decap_6
XFILLER_8_121 VGND VPWR VPWR VGND sky130_ef_sc_hd__decap_12
XFILLER_8_165 VGND VPWR VPWR VGND sky130_ef_sc_hd__decap_12
XFILLER_10_109 VGND VPWR VPWR VGND sky130_ef_sc_hd__decap_12
XFILLER_12_27 VGND VGND VPWR VPWR sky130_fd_sc_hd__fill_1
XFILLER_5_113 VGND VPWR VPWR VGND sky130_ef_sc_hd__decap_12
XFILLER_23_15 VGND VPWR VPWR VGND sky130_ef_sc_hd__decap_12
XFILLER_4_83 VGND VGND VPWR VPWR sky130_fd_sc_hd__fill_1
XFILLER_9_39 VGND VPWR VPWR VGND sky130_ef_sc_hd__decap_12
XFILLER_13_81 VGND VPWR VPWR VGND sky130_ef_sc_hd__decap_12
XFILLER_18_15 VGND VPWR VPWR VGND sky130_ef_sc_hd__decap_12
XFILLER_27_3 VGND VPWR VPWR VGND sky130_ef_sc_hd__decap_12
XFILLER_20_27 VGND VGND VPWR VPWR sky130_fd_sc_hd__fill_1
XFILLER_1_51 VGND VGND VPWR VPWR sky130_fd_sc_hd__decap_4
XFILLER_19_189 VGND VGND VPWR VPWR sky130_fd_sc_hd__fill_1
XFILLER_19_167 VGND VGND VPWR VPWR sky130_fd_sc_hd__fill_1
XFILLER_6_29 VGND VPWR VPWR VGND sky130_ef_sc_hd__decap_12
XFILLER_25_137 VGND VPWR VPWR VGND sky130_ef_sc_hd__decap_12
XFILLER_15_27 VGND VPWR VPWR VGND sky130_ef_sc_hd__decap_12
XTAP_129 VGND VPWR sky130_fd_sc_hd__tapvpwrvgnd_1
XFILLER_21_81 VGND VPWR VPWR VGND sky130_ef_sc_hd__decap_12
XTAP_118 VGND VPWR sky130_fd_sc_hd__tapvpwrvgnd_1
XTAP_107 VGND VPWR sky130_fd_sc_hd__tapvpwrvgnd_1
XFILLER_15_181 VGND VGND VPWR VPWR sky130_fd_sc_hd__decap_8
XPHY_1 VGND VGND VPWR VPWR sky130_fd_sc_hd__decap_3
XFILLER_26_15 VGND VPWR VPWR VGND sky130_ef_sc_hd__decap_12
XFILLER_8_133 VGND VGND VPWR VPWR sky130_fd_sc_hd__decap_6
XFILLER_8_177 VGND VPWR VPWR VGND sky130_ef_sc_hd__decap_12
XFILLER_5_125 VGND VPWR VPWR VGND sky130_ef_sc_hd__decap_12
XFILLER_5_169 VGND VPWR VPWR VGND sky130_ef_sc_hd__decap_12
XFILLER_23_27 VGND VPWR VPWR VGND sky130_ef_sc_hd__decap_12
XFILLER_2_139 VGND VGND VPWR VPWR sky130_fd_sc_hd__fill_1
XFILLER_1_161 VGND VGND VPWR VPWR sky130_fd_sc_hd__decap_6
XFILLER_13_93 VGND VPWR VPWR VGND sky130_ef_sc_hd__decap_12
XFILLER_18_27 VGND VGND VPWR VPWR sky130_fd_sc_hd__fill_1
XFILLER_19_113 VGND VPWR VPWR VGND sky130_ef_sc_hd__decap_12
XFILLER_10_83 VGND VGND VPWR VPWR sky130_fd_sc_hd__fill_1
XFILLER_25_105 VGND VGND VPWR VPWR sky130_fd_sc_hd__decap_6
XFILLER_19_81 VGND VPWR VPWR VGND sky130_ef_sc_hd__decap_12
XFILLER_25_149 VGND VPWR VPWR VGND sky130_ef_sc_hd__decap_12
XFILLER_15_39 VGND VPWR VPWR VGND sky130_ef_sc_hd__decap_12
XFILLER_21_93 VGND VPWR VPWR VGND sky130_ef_sc_hd__decap_12
XTAP_119 VGND VPWR sky130_fd_sc_hd__tapvpwrvgnd_1
XTAP_108 VGND VPWR sky130_fd_sc_hd__tapvpwrvgnd_1
XPHY_2 VGND VGND VPWR VPWR sky130_fd_sc_hd__decap_3
XFILLER_26_27 VGND VGND VPWR VPWR sky130_fd_sc_hd__fill_1
XFILLER_7_51 VGND VGND VPWR VPWR sky130_fd_sc_hd__decap_4
XFILLER_8_189 VGND VGND VPWR VPWR sky130_fd_sc_hd__fill_1
XFILLER_12_141 VGND VPWR VPWR VGND sky130_ef_sc_hd__decap_12
XFILLER_12_29 VGND VGND VPWR VPWR sky130_fd_sc_hd__decap_8
XFILLER_5_137 VGND VPWR VPWR VGND sky130_ef_sc_hd__decap_12
XFILLER_27_81 VGND VGND VPWR VPWR sky130_fd_sc_hd__decap_3
XFILLER_4_41 VGND VPWR VPWR VGND sky130_ef_sc_hd__decap_12
XFILLER_4_85 VGND VPWR VPWR VGND sky130_ef_sc_hd__decap_12
XFILLER_23_39 VGND VPWR VPWR VGND sky130_ef_sc_hd__decap_12
XFILLER_13_50 VGND VGND VPWR VPWR sky130_fd_sc_hd__decap_6
XFILLER_20_29 VGND VPWR VPWR VGND sky130_ef_sc_hd__decap_12
XFILLER_19_169 VGND VPWR VPWR VGND sky130_ef_sc_hd__decap_12
XFILLER_19_125 VGND VPWR VPWR VGND sky130_ef_sc_hd__decap_12
XFILLER_19_93 VGND VPWR VPWR VGND sky130_ef_sc_hd__decap_12
XTAP_109 VGND VPWR sky130_fd_sc_hd__tapvpwrvgnd_1
XFILLER_16_139 VGND VGND VPWR VPWR sky130_fd_sc_hd__fill_1
XFILLER_22_109 VGND VPWR VPWR VGND sky130_ef_sc_hd__decap_12
XFILLER_15_161 VGND VGND VPWR VPWR sky130_fd_sc_hd__decap_6
XPHY_3 VGND VGND VPWR VPWR sky130_fd_sc_hd__decap_3
XFILLER_16_83 VGND VGND VPWR VPWR sky130_fd_sc_hd__fill_1
XFILLER_12_153 VGND VPWR VPWR VGND sky130_ef_sc_hd__decap_12
XFILLER_5_105 VGND VGND VPWR VPWR sky130_fd_sc_hd__decap_6
XFILLER_5_149 VGND VPWR VPWR VGND sky130_ef_sc_hd__decap_12
XFILLER_4_53 VGND VPWR VPWR VGND sky130_ef_sc_hd__decap_12
XFILLER_4_97 VGND VPWR VPWR VGND sky130_ef_sc_hd__decap_12
XFILLER_18_29 VGND VPWR VPWR VGND sky130_ef_sc_hd__decap_12
XFILLER_24_83 VGND VGND VPWR VPWR sky130_fd_sc_hd__fill_1
XFILLER_27_181 VGND VGND VPWR VPWR sky130_fd_sc_hd__decap_8
XFILLER_19_137 VGND VPWR VPWR VGND sky130_ef_sc_hd__decap_12
XFILLER_10_41 VGND VPWR VPWR VGND sky130_ef_sc_hd__decap_12
XFILLER_10_85 VGND VPWR VPWR VGND sky130_ef_sc_hd__decap_12
XFILLER_25_3 VGND VPWR VPWR VGND sky130_ef_sc_hd__decap_12
XFILLER_21_51 VGND VGND VPWR VPWR sky130_fd_sc_hd__decap_4
XPHY_4 VGND VGND VPWR VPWR sky130_fd_sc_hd__decap_3
XFILLER_26_29 VGND VPWR VPWR VGND sky130_ef_sc_hd__decap_12
XFILLER_12_121 VGND VPWR VPWR VGND sky130_ef_sc_hd__decap_12
XFILLER_12_165 VGND VPWR VPWR VGND sky130_ef_sc_hd__decap_12
XFILLER_2_109 VGND VPWR VPWR VGND sky130_ef_sc_hd__decap_12
XFILLER_4_65 VGND VPWR VPWR VGND sky130_ef_sc_hd__decap_12
XFILLER_1_55 VGND VGND VPWR VPWR sky130_fd_sc_hd__fill_1
XFILLER_19_149 VGND VPWR VPWR VGND sky130_ef_sc_hd__decap_12
XFILLER_19_105 VGND VGND VPWR VPWR sky130_fd_sc_hd__decap_6
XFILLER_19_51 VGND VGND VPWR VPWR sky130_fd_sc_hd__decap_4
XFILLER_10_53 VGND VPWR VPWR VGND sky130_ef_sc_hd__decap_12
XFILLER_10_97 VGND VPWR VPWR VGND sky130_ef_sc_hd__decap_12
XFILLER_18_3 VGND VPWR VPWR VGND sky130_ef_sc_hd__decap_12
XFILLER_24_141 VGND VPWR VPWR VGND sky130_ef_sc_hd__decap_12
XPHY_5 VGND VGND VPWR VPWR sky130_fd_sc_hd__decap_3
XFILLER_21_111 VGND VGND VPWR VPWR sky130_fd_sc_hd__fill_1
XFILLER_16_85 VGND VPWR VPWR VGND sky130_ef_sc_hd__decap_12
XFILLER_16_41 VGND VPWR VPWR VGND sky130_ef_sc_hd__decap_12
XFILLER_12_133 VGND VGND VPWR VPWR sky130_fd_sc_hd__decap_6
XFILLER_12_177 VGND VPWR VPWR VGND sky130_ef_sc_hd__decap_12
XFILLER_7_181 VGND VGND VPWR VPWR sky130_fd_sc_hd__decap_8
Xdelay_macrocell_0 ena_in delay_macrocell_1/in VPWR VGND VPWR VGND sky130_mm_sc_hd_dly5ns
XFILLER_4_77 VGND VGND VPWR VPWR sky130_fd_sc_hd__decap_6
XFILLER_24_85 VGND VPWR VPWR VGND sky130_ef_sc_hd__decap_12
XFILLER_24_41 VGND VPWR VPWR VGND sky130_ef_sc_hd__decap_12
XFILLER_10_65 VGND VPWR VPWR VGND sky130_ef_sc_hd__decap_12
XFILLER_24_153 VGND VPWR VPWR VGND sky130_ef_sc_hd__decap_12
XFILLER_16_109 VGND VPWR VPWR VGND sky130_ef_sc_hd__decap_12
XPHY_6 VGND VGND VPWR VPWR sky130_fd_sc_hd__decap_3
XFILLER_7_55 VGND VGND VPWR VPWR sky130_fd_sc_hd__fill_1
XFILLER_21_189 VGND VGND VPWR VPWR sky130_fd_sc_hd__fill_1
XFILLER_21_167 VGND VGND VPWR VPWR sky130_fd_sc_hd__fill_1
XFILLER_16_97 VGND VPWR VPWR VGND sky130_ef_sc_hd__decap_12
XFILLER_16_53 VGND VPWR VPWR VGND sky130_ef_sc_hd__decap_12
XFILLER_12_189 VGND VGND VPWR VPWR sky130_fd_sc_hd__fill_1
Xdelay_macrocell_1 delay_macrocell_1/in _1_/A_N VPWR VGND VPWR VGND sky130_mm_sc_hd_dly5ns
XFILLER_27_41 VGND VPWR VPWR VGND sky130_ef_sc_hd__decap_12
XFILLER_27_85 VGND VPWR VPWR VGND sky130_ef_sc_hd__decap_12
XFILLER_4_141 VGND VPWR VPWR VGND sky130_ef_sc_hd__decap_12
XFILLER_1_111 VGND VGND VPWR VPWR sky130_fd_sc_hd__fill_1
XFILLER_8_3 VGND VPWR VPWR VGND sky130_ef_sc_hd__decap_12
XFILLER_24_97 VGND VPWR VPWR VGND sky130_ef_sc_hd__decap_12
XFILLER_24_53 VGND VPWR VPWR VGND sky130_ef_sc_hd__decap_12
XFILLER_1_57 VGND VPWR VPWR VGND sky130_ef_sc_hd__decap_12
XFILLER_10_77 VGND VGND VPWR VPWR sky130_fd_sc_hd__decap_6
XTAP_90 VGND VPWR sky130_fd_sc_hd__tapvpwrvgnd_1
XFILLER_24_121 VGND VPWR VPWR VGND sky130_ef_sc_hd__decap_12
XFILLER_24_165 VGND VPWR VPWR VGND sky130_ef_sc_hd__decap_12
XPHY_7 VGND VGND VPWR VPWR sky130_fd_sc_hd__decap_3
XFILLER_23_3 VGND VPWR VPWR VGND sky130_ef_sc_hd__decap_12
XFILLER_21_113 VGND VPWR VPWR VGND sky130_ef_sc_hd__decap_12
XFILLER_16_65 VGND VPWR VPWR VGND sky130_ef_sc_hd__decap_12
XFILLER_8_139 VGND VGND VPWR VPWR sky130_fd_sc_hd__fill_1
XFILLER_7_161 VGND VGND VPWR VPWR sky130_fd_sc_hd__decap_6
XFILLER_27_97 VGND VPWR VPWR VGND sky130_ef_sc_hd__decap_12
XFILLER_27_53 VGND VGND VPWR VPWR sky130_fd_sc_hd__decap_3
XFILLER_4_153 VGND VPWR VPWR VGND sky130_ef_sc_hd__decap_12
XFILLER_1_189 VGND VGND VPWR VPWR sky130_fd_sc_hd__fill_1
XFILLER_1_167 VGND VGND VPWR VPWR sky130_fd_sc_hd__fill_1
XFILLER_24_65 VGND VPWR VPWR VGND sky130_ef_sc_hd__decap_12
XFILLER_1_69 VGND VPWR VPWR VGND sky130_ef_sc_hd__decap_12
XTAP_80 VGND VPWR sky130_fd_sc_hd__tapvpwrvgnd_1
XTAP_91 VGND VPWR sky130_fd_sc_hd__tapvpwrvgnd_1
XFILLER_27_141 VGND VPWR VPWR VGND sky130_ef_sc_hd__decap_12
XFILLER_18_141 VGND VPWR VPWR VGND sky130_ef_sc_hd__decap_12
XFILLER_24_177 VGND VPWR VPWR VGND sky130_ef_sc_hd__decap_12
XFILLER_24_133 VGND VGND VPWR VPWR sky130_fd_sc_hd__decap_6
XFILLER_21_55 VGND VGND VPWR VPWR sky130_fd_sc_hd__fill_1
XFILLER_16_3 VGND VPWR VPWR VGND sky130_ef_sc_hd__decap_12
XFILLER_15_111 VGND VGND VPWR VPWR sky130_fd_sc_hd__fill_1
XPHY_8 VGND VGND VPWR VPWR sky130_fd_sc_hd__decap_3
XFILLER_7_57 VGND VPWR VPWR VGND sky130_ef_sc_hd__decap_12
XFILLER_21_169 VGND VPWR VPWR VGND sky130_ef_sc_hd__decap_12
XFILLER_21_125 VGND VPWR VPWR VGND sky130_ef_sc_hd__decap_12
XFILLER_16_77 VGND VGND VPWR VPWR sky130_fd_sc_hd__decap_6
XFILLER_4_121 VGND VPWR VPWR VGND sky130_ef_sc_hd__decap_12
XFILLER_4_165 VGND VPWR VPWR VGND sky130_ef_sc_hd__decap_12
XFILLER_1_113 VGND VPWR VPWR VGND sky130_ef_sc_hd__decap_12
XFILLER_24_77 VGND VGND VPWR VPWR sky130_fd_sc_hd__decap_6
XFILLER_1_15 VGND VPWR VPWR VGND sky130_ef_sc_hd__decap_12
XTAP_70 VGND VPWR sky130_fd_sc_hd__tapvpwrvgnd_1
XTAP_81 VGND VPWR sky130_fd_sc_hd__tapvpwrvgnd_1
XTAP_92 VGND VPWR sky130_fd_sc_hd__tapvpwrvgnd_1
XFILLER_27_153 VGND VPWR VPWR VGND sky130_ef_sc_hd__decap_12
XFILLER_19_55 VGND VGND VPWR VPWR sky130_fd_sc_hd__fill_1
XFILLER_18_153 VGND VPWR VPWR VGND sky130_ef_sc_hd__decap_12
XFILLER_24_189 VGND VGND VPWR VPWR sky130_fd_sc_hd__fill_1
XFILLER_15_189 VGND VGND VPWR VPWR sky130_fd_sc_hd__fill_1
XFILLER_15_167 VGND VGND VPWR VPWR sky130_fd_sc_hd__fill_1
XPHY_9 VGND VGND VPWR VPWR sky130_fd_sc_hd__decap_3
XFILLER_7_69 VGND VPWR VPWR VGND sky130_ef_sc_hd__decap_12
XFILLER_21_137 VGND VPWR VPWR VGND sky130_ef_sc_hd__decap_12
XFILLER_11_181 VGND VGND VPWR VPWR sky130_fd_sc_hd__decap_8
XFILLER_4_15 VGND VPWR VPWR VGND sky130_ef_sc_hd__decap_12
XFILLER_4_133 VGND VGND VPWR VPWR sky130_fd_sc_hd__decap_6
XFILLER_4_177 VGND VPWR VPWR VGND sky130_ef_sc_hd__decap_12
XFILLER_1_125 VGND VPWR VPWR VGND sky130_ef_sc_hd__decap_12
XFILLER_13_57 VGND VPWR VPWR VGND sky130_ef_sc_hd__decap_12
XFILLER_1_169 VGND VPWR VPWR VGND sky130_ef_sc_hd__decap_12
XFILLER_1_27 VGND VPWR VPWR VGND sky130_ef_sc_hd__decap_12
XFILLER_6_3 VGND VPWR VPWR VGND sky130_ef_sc_hd__decap_12
XTAP_60 VGND VPWR sky130_fd_sc_hd__tapvpwrvgnd_1
XTAP_71 VGND VPWR sky130_fd_sc_hd__tapvpwrvgnd_1
XTAP_82 VGND VPWR sky130_fd_sc_hd__tapvpwrvgnd_1
XTAP_93 VGND VPWR sky130_fd_sc_hd__tapvpwrvgnd_1
XFILLER_27_165 VGND VGND VPWR VPWR sky130_fd_sc_hd__decap_3
XFILLER_18_165 VGND VPWR VPWR VGND sky130_ef_sc_hd__decap_12
XFILLER_18_121 VGND VPWR VPWR VGND sky130_ef_sc_hd__decap_12
XFILLER_21_57 VGND VPWR VPWR VGND sky130_ef_sc_hd__decap_12
XFILLER_15_113 VGND VPWR VPWR VGND sky130_ef_sc_hd__decap_12
XFILLER_7_15 VGND VPWR VPWR VGND sky130_ef_sc_hd__decap_12
XFILLER_21_149 VGND VPWR VPWR VGND sky130_ef_sc_hd__decap_12
XFILLER_21_105 VGND VGND VPWR VPWR sky130_fd_sc_hd__decap_6
XFILLER_8_109 VGND VPWR VPWR VGND sky130_ef_sc_hd__decap_12
XFILLER_21_3 VGND VPWR VPWR VGND sky130_ef_sc_hd__decap_12
XFILLER_4_27 VGND VGND VPWR VPWR sky130_fd_sc_hd__fill_1
XFILLER_4_189 VGND VGND VPWR VPWR sky130_fd_sc_hd__fill_1
XFILLER_13_69 VGND VPWR VPWR VGND sky130_ef_sc_hd__decap_12
XFILLER_1_137 VGND VPWR VPWR VGND sky130_ef_sc_hd__decap_12
XFILLER_0_181 VGND VGND VPWR VPWR sky130_fd_sc_hd__decap_8
XFILLER_5_81 VGND VPWR VPWR VGND sky130_ef_sc_hd__decap_12
XFILLER_1_39 VGND VPWR VPWR VGND sky130_ef_sc_hd__decap_12
XFILLER_19_57 VGND VPWR VPWR VGND sky130_ef_sc_hd__decap_12
XTAP_61 VGND VPWR sky130_fd_sc_hd__tapvpwrvgnd_1
XTAP_72 VGND VPWR sky130_fd_sc_hd__tapvpwrvgnd_1
XTAP_83 VGND VPWR sky130_fd_sc_hd__tapvpwrvgnd_1
XFILLER_10_15 VGND VPWR VPWR VGND sky130_ef_sc_hd__decap_12
XTAP_94 VGND VPWR sky130_fd_sc_hd__tapvpwrvgnd_1
XFILLER_18_177 VGND VPWR VPWR VGND sky130_ef_sc_hd__decap_12
XFILLER_18_133 VGND VGND VPWR VPWR sky130_fd_sc_hd__decap_6
XFILLER_21_69 VGND VPWR VPWR VGND sky130_ef_sc_hd__decap_12
XFILLER_15_169 VGND VPWR VPWR VGND sky130_ef_sc_hd__decap_12
XFILLER_15_125 VGND VPWR VPWR VGND sky130_ef_sc_hd__decap_12
XFILLER_7_27 VGND VPWR VPWR VGND sky130_ef_sc_hd__decap_12
XFILLER_12_139 VGND VGND VPWR VPWR sky130_fd_sc_hd__fill_1
XFILLER_11_161 VGND VGND VPWR VPWR sky130_fd_sc_hd__decap_6
XFILLER_14_3 VGND VPWR VPWR VGND sky130_ef_sc_hd__decap_12
XFILLER_27_57 VGND VPWR VPWR VGND sky130_ef_sc_hd__decap_12
XFILLER_1_149 VGND VPWR VPWR VGND sky130_ef_sc_hd__decap_12
XFILLER_1_105 VGND VGND VPWR VPWR sky130_fd_sc_hd__decap_6
XFILLER_13_26 VGND VPWR VPWR VGND sky130_ef_sc_hd__decap_12
XFILLER_5_93 VGND VPWR VPWR VGND sky130_ef_sc_hd__decap_12
XFILLER_19_69 VGND VPWR VPWR VGND sky130_ef_sc_hd__decap_12
XTAP_62 VGND VPWR sky130_fd_sc_hd__tapvpwrvgnd_1
XTAP_73 VGND VPWR sky130_fd_sc_hd__tapvpwrvgnd_1
XTAP_84 VGND VPWR sky130_fd_sc_hd__tapvpwrvgnd_1
XFILLER_10_27 VGND VGND VPWR VPWR sky130_fd_sc_hd__fill_1
XTAP_95 VGND VPWR sky130_fd_sc_hd__tapvpwrvgnd_1
XFILLER_27_189 VGND VGND VPWR VPWR sky130_fd_sc_hd__fill_1
XFILLER_18_189 VGND VGND VPWR VPWR sky130_fd_sc_hd__fill_1
XFILLER_2_83 VGND VGND VPWR VPWR sky130_fd_sc_hd__fill_1
XFILLER_23_181 VGND VGND VPWR VPWR sky130_fd_sc_hd__decap_8
XFILLER_21_15 VGND VPWR VPWR VGND sky130_ef_sc_hd__decap_12
XFILLER_15_137 VGND VPWR VPWR VGND sky130_ef_sc_hd__decap_12
XFILLER_7_39 VGND VPWR VPWR VGND sky130_ef_sc_hd__decap_12
XFILLER_11_81 VGND VPWR VPWR VGND sky130_ef_sc_hd__decap_12
XFILLER_16_15 VGND VPWR VPWR VGND sky130_ef_sc_hd__decap_12
XFILLER_7_111 VGND VGND VPWR VPWR sky130_fd_sc_hd__fill_1
XFILLER_27_69 VGND VPWR VPWR VGND sky130_ef_sc_hd__decap_12
XFILLER_4_29 VGND VPWR VPWR VGND sky130_ef_sc_hd__decap_12
XFILLER_13_38 VGND VPWR VPWR VGND sky130_ef_sc_hd__decap_12
XFILLER_24_15 VGND VPWR VPWR VGND sky130_ef_sc_hd__decap_12
XTAP_63 VGND VPWR sky130_fd_sc_hd__tapvpwrvgnd_1
XTAP_74 VGND VPWR sky130_fd_sc_hd__tapvpwrvgnd_1
XTAP_85 VGND VPWR sky130_fd_sc_hd__tapvpwrvgnd_1
XTAP_96 VGND VPWR sky130_fd_sc_hd__tapvpwrvgnd_1
XFILLER_27_113 VGND VPWR VPWR VGND sky130_ef_sc_hd__decap_12
XFILLER_19_15 VGND VPWR VPWR VGND sky130_ef_sc_hd__decap_12
XFILLER_4_3 VGND VPWR VPWR VGND sky130_ef_sc_hd__decap_12
XFILLER_21_27 VGND VPWR VPWR VGND sky130_ef_sc_hd__decap_12
XFILLER_15_105 VGND VGND VPWR VPWR sky130_fd_sc_hd__decap_6
XFILLER_15_149 VGND VPWR VPWR VGND sky130_ef_sc_hd__decap_12
XFILLER_11_93 VGND VPWR VPWR VGND sky130_ef_sc_hd__decap_12
XFILLER_20_141 VGND VPWR VPWR VGND sky130_ef_sc_hd__decap_12
XFILLER_16_27 VGND VGND VPWR VPWR sky130_fd_sc_hd__fill_1
XFILLER_7_167 VGND VGND VPWR VPWR sky130_fd_sc_hd__fill_1
XFILLER_7_189 VGND VGND VPWR VPWR sky130_fd_sc_hd__fill_1
XFILLER_8_83 VGND VGND VPWR VPWR sky130_fd_sc_hd__fill_1
XFILLER_27_15 VGND VPWR VPWR VGND sky130_ef_sc_hd__decap_12
XFILLER_17_81 VGND VPWR VPWR VGND sky130_ef_sc_hd__decap_12
XFILLER_3_181 VGND VGND VPWR VPWR sky130_fd_sc_hd__decap_8
XFILLER_24_27 VGND VGND VPWR VPWR sky130_fd_sc_hd__fill_1
XFILLER_5_51 VGND VGND VPWR VPWR sky130_fd_sc_hd__decap_4
XFILLER_14_60 VGND VPWR VPWR VGND sky130_ef_sc_hd__decap_12
XTAP_64 VGND VPWR sky130_fd_sc_hd__tapvpwrvgnd_1
XTAP_75 VGND VPWR sky130_fd_sc_hd__tapvpwrvgnd_1
XTAP_86 VGND VPWR sky130_fd_sc_hd__tapvpwrvgnd_1
XTAP_97 VGND VPWR sky130_fd_sc_hd__tapvpwrvgnd_1
XFILLER_27_169 VGND VPWR VPWR VGND sky130_ef_sc_hd__decap_12
XFILLER_27_125 VGND VPWR VPWR VGND sky130_ef_sc_hd__decap_12
XFILLER_19_27 VGND VPWR VPWR VGND sky130_ef_sc_hd__decap_12
XFILLER_10_29 VGND VPWR VPWR VGND sky130_ef_sc_hd__decap_12
XFILLER_25_81 VGND VPWR VPWR VGND sky130_ef_sc_hd__decap_12
X_2_ _2_/A VGND VGND VPWR VPWR ena_out sky130_fd_sc_hd__buf_1
XFILLER_24_139 VGND VGND VPWR VPWR sky130_fd_sc_hd__fill_1
XFILLER_21_39 VGND VPWR VPWR VGND sky130_ef_sc_hd__decap_12
XFILLER_2_85 VGND VPWR VPWR VGND sky130_ef_sc_hd__decap_12
XFILLER_2_41 VGND VPWR VPWR VGND sky130_ef_sc_hd__decap_12
XFILLER_23_161 VGND VGND VPWR VPWR sky130_fd_sc_hd__decap_6
XFILLER_20_153 VGND VPWR VPWR VGND sky130_ef_sc_hd__decap_12
XFILLER_12_109 VGND VPWR VPWR VGND sky130_ef_sc_hd__decap_12
XFILLER_7_113 VGND VPWR VPWR VGND sky130_ef_sc_hd__decap_12
XFILLER_27_27 VGND VGND VPWR VPWR sky130_fd_sc_hd__fill_1
XFILLER_17_93 VGND VPWR VPWR VGND sky130_ef_sc_hd__decap_12
XFILLER_12_3 VGND VPWR VPWR VGND sky130_ef_sc_hd__decap_12
XFILLER_0_141 VGND VPWR VPWR VGND sky130_ef_sc_hd__decap_12
XTAP_65 VGND VPWR sky130_fd_sc_hd__tapvpwrvgnd_1
XTAP_76 VGND VPWR sky130_fd_sc_hd__tapvpwrvgnd_1
XTAP_87 VGND VPWR sky130_fd_sc_hd__tapvpwrvgnd_1
XTAP_98 VGND VPWR sky130_fd_sc_hd__tapvpwrvgnd_1
XFILLER_14_72 VGND VPWR VPWR VGND sky130_ef_sc_hd__decap_12
XFILLER_27_137 VGND VGND VPWR VPWR sky130_fd_sc_hd__decap_3
XFILLER_19_39 VGND VPWR VPWR VGND sky130_ef_sc_hd__decap_12
XFILLER_25_93 VGND VPWR VPWR VGND sky130_ef_sc_hd__decap_12
X_1_ _1_/A_N start_conv VGND VGND VPWR VPWR _2_/A sky130_fd_sc_hd__and2b_2
XFILLER_17_181 VGND VGND VPWR VPWR sky130_fd_sc_hd__decap_8
XFILLER_2_97 VGND VPWR VPWR VGND sky130_ef_sc_hd__decap_12
XFILLER_2_53 VGND VPWR VPWR VGND sky130_ef_sc_hd__decap_12
XFILLER_20_165 VGND VPWR VPWR VGND sky130_ef_sc_hd__decap_12
XFILLER_20_121 VGND VPWR VPWR VGND sky130_ef_sc_hd__decap_12
XFILLER_16_29 VGND VPWR VPWR VGND sky130_ef_sc_hd__decap_12
XFILLER_22_83 VGND VGND VPWR VPWR sky130_fd_sc_hd__fill_1
XFILLER_7_125 VGND VPWR VPWR VGND sky130_ef_sc_hd__decap_12
XFILLER_7_169 VGND VPWR VPWR VGND sky130_ef_sc_hd__decap_12
XFILLER_8_41 VGND VPWR VPWR VGND sky130_ef_sc_hd__decap_12
XFILLER_8_85 VGND VPWR VPWR VGND sky130_ef_sc_hd__decap_12
XFILLER_4_139 VGND VGND VPWR VPWR sky130_fd_sc_hd__fill_1
XFILLER_3_161 VGND VGND VPWR VPWR sky130_fd_sc_hd__decap_6
XFILLER_0_153 VGND VPWR VPWR VGND sky130_ef_sc_hd__decap_12
XFILLER_24_29 VGND VPWR VPWR VGND sky130_ef_sc_hd__decap_12
XTAP_66 VGND VPWR sky130_fd_sc_hd__tapvpwrvgnd_1
XTAP_77 VGND VPWR sky130_fd_sc_hd__tapvpwrvgnd_1
XTAP_88 VGND VPWR sky130_fd_sc_hd__tapvpwrvgnd_1
XTAP_99 VGND VPWR sky130_fd_sc_hd__tapvpwrvgnd_1
XPHY_50 VGND VGND VPWR VPWR sky130_fd_sc_hd__decap_3
XFILLER_2_65 VGND VPWR VPWR VGND sky130_ef_sc_hd__decap_12
XFILLER_2_3 VGND VPWR VPWR VGND sky130_ef_sc_hd__decap_12
XFILLER_14_141 VGND VPWR VPWR VGND sky130_ef_sc_hd__decap_12
XFILLER_20_177 VGND VPWR VPWR VGND sky130_ef_sc_hd__decap_12
XFILLER_20_133 VGND VGND VPWR VPWR sky130_fd_sc_hd__decap_6
XFILLER_7_137 VGND VPWR VPWR VGND sky130_ef_sc_hd__decap_12
XFILLER_11_111 VGND VGND VPWR VPWR sky130_fd_sc_hd__fill_1
XFILLER_27_29 VGND VPWR VPWR VGND sky130_ef_sc_hd__decap_12
XFILLER_8_53 VGND VPWR VPWR VGND sky130_ef_sc_hd__decap_12
XFILLER_8_97 VGND VPWR VPWR VGND sky130_ef_sc_hd__decap_12
XFILLER_17_51 VGND VGND VPWR VPWR sky130_fd_sc_hd__decap_4
XFILLER_0_165 VGND VGND VPWR VPWR sky130_fd_sc_hd__decap_3
XFILLER_14_85 VGND VPWR VPWR VGND sky130_ef_sc_hd__decap_12
XTAP_67 VGND VPWR sky130_fd_sc_hd__tapvpwrvgnd_1
XTAP_56 VGND VPWR sky130_fd_sc_hd__tapvpwrvgnd_1
XTAP_78 VGND VPWR sky130_fd_sc_hd__tapvpwrvgnd_1
XTAP_89 VGND VPWR sky130_fd_sc_hd__tapvpwrvgnd_1
XFILLER_18_139 VGND VGND VPWR VPWR sky130_fd_sc_hd__fill_1
XPHY_51 VGND VGND VPWR VPWR sky130_fd_sc_hd__decap_3
XFILLER_25_51 VGND VGND VPWR VPWR sky130_fd_sc_hd__decap_4
XFILLER_24_109 VGND VPWR VPWR VGND sky130_ef_sc_hd__decap_12
XPHY_40 VGND VGND VPWR VPWR sky130_fd_sc_hd__decap_3
XFILLER_17_161 VGND VGND VPWR VPWR sky130_fd_sc_hd__decap_6
XFILLER_2_77 VGND VGND VPWR VPWR sky130_fd_sc_hd__decap_6
XFILLER_14_153 VGND VPWR VPWR VGND sky130_ef_sc_hd__decap_12
XFILLER_20_189 VGND VGND VPWR VPWR sky130_fd_sc_hd__fill_1
XFILLER_22_85 VGND VPWR VPWR VGND sky130_ef_sc_hd__decap_12
XFILLER_22_41 VGND VPWR VPWR VGND sky130_ef_sc_hd__decap_12
XFILLER_7_105 VGND VGND VPWR VPWR sky130_fd_sc_hd__decap_6
XFILLER_7_149 VGND VPWR VPWR VGND sky130_ef_sc_hd__decap_12
XFILLER_11_167 VGND VGND VPWR VPWR sky130_fd_sc_hd__fill_1
XFILLER_11_189 VGND VGND VPWR VPWR sky130_fd_sc_hd__fill_1
XFILLER_8_65 VGND VPWR VPWR VGND sky130_ef_sc_hd__decap_12
XFILLER_5_55 VGND VGND VPWR VPWR sky130_fd_sc_hd__fill_1
XFILLER_10_3 VGND VPWR VPWR VGND sky130_ef_sc_hd__decap_12
XFILLER_14_97 VGND VPWR VPWR VGND sky130_ef_sc_hd__decap_12
XTAP_68 VGND VPWR sky130_fd_sc_hd__tapvpwrvgnd_1
XTAP_57 VGND VPWR sky130_fd_sc_hd__tapvpwrvgnd_1
XTAP_79 VGND VPWR sky130_fd_sc_hd__tapvpwrvgnd_1
XPHY_52 VGND VGND VPWR VPWR sky130_fd_sc_hd__decap_3
XPHY_41 VGND VGND VPWR VPWR sky130_fd_sc_hd__decap_3
XPHY_30 VGND VGND VPWR VPWR sky130_fd_sc_hd__decap_3
XFILLER_14_121 VGND VPWR VPWR VGND sky130_ef_sc_hd__decap_12
XFILLER_14_165 VGND VPWR VPWR VGND sky130_ef_sc_hd__decap_12
XFILLER_22_53 VGND VPWR VPWR VGND sky130_ef_sc_hd__decap_12
XFILLER_11_113 VGND VPWR VPWR VGND sky130_ef_sc_hd__decap_12
XFILLER_22_97 VGND VPWR VPWR VGND sky130_ef_sc_hd__decap_12
XFILLER_8_77 VGND VGND VPWR VPWR sky130_fd_sc_hd__decap_6
XFILLER_4_109 VGND VPWR VPWR VGND sky130_ef_sc_hd__decap_12
XFILLER_0_189 VGND VGND VPWR VPWR sky130_fd_sc_hd__fill_1
XTAP_58 VGND VPWR sky130_fd_sc_hd__tapvpwrvgnd_1
XTAP_69 VGND VPWR sky130_fd_sc_hd__tapvpwrvgnd_1
XPHY_53 VGND VGND VPWR VPWR sky130_fd_sc_hd__decap_3
XFILLER_26_141 VGND VPWR VPWR VGND sky130_ef_sc_hd__decap_12
XPHY_42 VGND VGND VPWR VPWR sky130_fd_sc_hd__decap_3
XPHY_31 VGND VGND VPWR VPWR sky130_fd_sc_hd__decap_3
XPHY_20 VGND VGND VPWR VPWR sky130_fd_sc_hd__decap_3
XFILLER_23_111 VGND VGND VPWR VPWR sky130_fd_sc_hd__fill_1
XFILLER_11_55 VGND VGND VPWR VPWR sky130_fd_sc_hd__fill_1