* NGSPICE file created from adc_array_matrix_flat.ext - technology: sky130A

.subckt adc_array_matrix_flat vcm ctop analog_in sample sample_n sw sw_n row_n[0]
+ row_n[1] row_n[2] row_n[3] row_n[4] row_n[5] row_n[6] row_n[7] row_n[8] row_n[9]
+ row_n[10] row_n[11] row_n[12] row_n[13] row_n[14] row_n[15] row_n[16] row_n[17]
+ row_n[18] row_n[19] row_n[20] row_n[21] row_n[22] row_n[23] row_n[24] row_n[25]
+ row_n[26] row_n[27] row_n[28] row_n[29] row_n[30] row_n[31] en_n_bit[2] en_n_bit[1]
+ en_n_bit[0] col_n[0] col_n[1] col_n[2] col_n[3] col_n[4] col_n[5] col_n[6] col_n[7]
+ col_n[8] col_n[9] col_n[10] col_n[11] col_n[12] col_n[13] col_n[14] col_n[15] colon_n[0]
+ colon_n[1] colon_n[2] colon_n[3] colon_n[4] colon_n[5] colon_n[6] colon_n[7] colon_n[8]
+ colon_n[9] colon_n[10] colon_n[11] colon_n[12] colon_n[13] colon_n[14] colon_n[15]
+ VSS VDD
X0 adc_array_wafflecap_8_8_0[11|4]/adc_array_circuit_150n_0/vdrv col_n[11] adc_array_wafflecap_8_8_0[11|4]/adc_array_circuit_150n_0/vint1 VDD sky130_fd_pr__pfet_01v8 ad=7.44e+11p pd=6.66e+06u as=2.64e+11p ps=2.26e+06u w=800000u l=150000u
X1 adc_array_wafflecap_8_8_0[11|14]/adc_array_circuit_150n_0/vdrv col_n[11] adc_array_wafflecap_8_8_0[11|14]/adc_array_circuit_150n_0/vint1 VDD sky130_fd_pr__pfet_01v8 ad=7.44e+11p pd=6.66e+06u as=2.64e+11p ps=2.26e+06u w=800000u l=150000u
X2 adc_array_wafflecap_8_8_0[9|18]/adc_array_circuit_150n_0/vint1 row_n[18] VDD VDD sky130_fd_pr__pfet_01v8 ad=2.64e+11p pd=2.26e+06u as=1.72952e+14p ps=1.48678e+09u w=800000u l=150000u
X3 vcm adc_array_wafflecap_8_8_0[5|31]/adc_array_circuit_150n_0/sample adc_array_wafflecap_8_8_0[5|21]/adc_array_circuit_150n_0/cbot VSS sky130_fd_pr__nfet_01v8 ad=7.7469e+13p pd=8.687e+08u as=1.386e+11p ps=1.5e+06u w=420000u l=150000u
X4 adc_array_wafflecap_8_Dummy_4[17]/adc_array_circuit_150n_0/vint2 row_n[16] VSS VSS sky130_fd_pr__nfet_01v8 ad=2.688e+11p pd=2.96e+06u as=4.352e+14p ps=2.01194e+09u w=420000u l=150000u
X5 adc_array_wafflecap_8_8_0[12|16]/adc_array_circuit_150n_0/vint1 row_n[16] VDD VDD sky130_fd_pr__pfet_01v8 ad=2.64e+11p pd=2.26e+06u as=0p ps=0u w=800000u l=150000u
X6 VDD colon_n[4] adc_array_wafflecap_8_8_0[4|17]/adc_array_circuit_150n_0/vdrv VDD sky130_fd_pr__pfet_01v8 ad=0p pd=0u as=7.44e+11p ps=6.66e+06u w=800000u l=150000u
X7 adc_array_wafflecap_8_8_0[8|17]/adc_array_circuit_150n_0/vdrv col_n[8] adc_array_wafflecap_8_8_0[8|17]/adc_array_circuit_150n_0/vint1 VDD sky130_fd_pr__pfet_01v8 ad=7.44e+11p pd=6.66e+06u as=2.64e+11p ps=2.26e+06u w=800000u l=150000u
X8 VSS col_n[8] adc_array_wafflecap_8_8_0[8|24]/adc_array_circuit_150n_0/vint2 VSS sky130_fd_pr__nfet_01v8 ad=0p pd=0u as=2.688e+11p ps=2.96e+06u w=420000u l=150000u
X9 adc_array_wafflecap_8_8_0[1|7]/adc_array_circuit_150n_0/cbot adc_array_wafflecap_8_8_0[1|31]/adc_array_circuit_150n_0/sample_n adc_array_wafflecap_8_8_0[1|7]/adc_array_circuit_150n_0/vdrv VSS sky130_fd_pr__nfet_01v8 ad=1.386e+11p pd=1.5e+06u as=2.604e+11p ps=2.92e+06u w=420000u l=150000u
X10 VSS col_n[2] adc_array_wafflecap_8_8_0[2|27]/adc_array_circuit_150n_0/vint2 VSS sky130_fd_pr__nfet_01v8 ad=0p pd=0u as=2.688e+11p ps=2.96e+06u w=420000u l=150000u
X11 VSS col_n[6] adc_array_wafflecap_8_8_0[6|26]/adc_array_circuit_150n_0/vint2 VSS sky130_fd_pr__nfet_01v8 ad=0p pd=0u as=2.688e+11p ps=2.96e+06u w=420000u l=150000u
X12 VSS col_n[14] adc_array_wafflecap_8_8_0[14|23]/adc_array_circuit_150n_0/vint2 VSS sky130_fd_pr__nfet_01v8 ad=0p pd=0u as=2.688e+11p ps=2.96e+06u w=420000u l=150000u
X13 vcm adc_array_wafflecap_8_8_0[13|31]/adc_array_circuit_150n_0/sample adc_array_wafflecap_8_8_0[13|15]/adc_array_circuit_150n_0/cbot VSS sky130_fd_pr__nfet_01v8 ad=0p pd=0u as=1.386e+11p ps=1.5e+06u w=420000u l=150000u
X14 adc_array_wafflecap_8_8_0[8|6]/adc_array_circuit_150n_0/vdrv adc_array_wafflecap_8_8_0[8|31]/adc_array_circuit_150n_0/sample adc_array_wafflecap_8_8_0[8|6]/adc_array_circuit_150n_0/cbot VDD sky130_fd_pr__pfet_01v8 ad=7.44e+11p pd=6.66e+06u as=2.64e+11p ps=2.26e+06u w=800000u l=150000u
X15 adc_array_wafflecap_8_8_0[8|16]/adc_array_circuit_150n_0/vdrv adc_array_wafflecap_8_8_0[8|31]/adc_array_circuit_150n_0/sample adc_array_wafflecap_8_8_0[8|16]/adc_array_circuit_150n_0/cbot VDD sky130_fd_pr__pfet_01v8 ad=7.44e+11p pd=6.66e+06u as=2.64e+11p ps=2.26e+06u w=800000u l=150000u
X16 adc_array_wafflecap_8_8_0[15|29]/adc_array_circuit_150n_0/vdrv adc_array_wafflecap_8_8_0[15|31]/adc_array_circuit_150n_0/sample adc_array_wafflecap_8_8_0[15|29]/adc_array_circuit_150n_0/cbot VDD sky130_fd_pr__pfet_01v8 ad=7.44e+11p pd=6.66e+06u as=2.64e+11p ps=2.26e+06u w=800000u l=150000u
X17 adc_array_wafflecap_8_8_0[14|16]/adc_array_circuit_150n_0/vdrv col_n[14] adc_array_wafflecap_8_8_0[14|16]/adc_array_circuit_150n_0/vint1 VDD sky130_fd_pr__pfet_01v8 ad=7.44e+11p pd=6.66e+06u as=2.64e+11p ps=2.26e+06u w=800000u l=150000u
X18 vcm adc_array_wafflecap_8_8_0[13|31]/adc_array_circuit_150n_0/sample adc_array_wafflecap_8_8_0[13|5]/adc_array_circuit_150n_0/cbot VSS sky130_fd_pr__nfet_01v8 ad=0p pd=0u as=1.386e+11p ps=1.5e+06u w=420000u l=150000u
X19 adc_array_wafflecap_8_8_0[12|27]/adc_array_circuit_150n_0/vint2 colon_n[12] adc_array_wafflecap_8_8_0[12|27]/adc_array_circuit_150n_0/vdrv VSS sky130_fd_pr__nfet_01v8 ad=2.688e+11p pd=2.96e+06u as=2.604e+11p ps=2.92e+06u w=420000u l=150000u
X20 VDD colon_n[10] adc_array_wafflecap_8_8_0[10|23]/adc_array_circuit_150n_0/vdrv VDD sky130_fd_pr__pfet_01v8 ad=0p pd=0u as=7.44e+11p ps=6.66e+06u w=800000u l=150000u
X21 vcm adc_array_wafflecap_8_8_0[3|31]/adc_array_circuit_150n_0/sample adc_array_wafflecap_8_8_0[3|26]/adc_array_circuit_150n_0/cbot VSS sky130_fd_pr__nfet_01v8 ad=0p pd=0u as=1.386e+11p ps=1.5e+06u w=420000u l=150000u
X22 vcm adc_array_wafflecap_8_8_0[6|31]/adc_array_circuit_150n_0/sample adc_array_wafflecap_8_8_0[6|4]/adc_array_circuit_150n_0/cbot VSS sky130_fd_pr__nfet_01v8 ad=0p pd=0u as=1.386e+11p ps=1.5e+06u w=420000u l=150000u
X23 adc_array_wafflecap_8_8_0[1|6]/adc_array_circuit_150n_0/vint2 row_n[6] VSS VSS sky130_fd_pr__nfet_01v8 ad=2.688e+11p pd=2.96e+06u as=0p ps=0u w=420000u l=150000u
X24 VDD VDD adc_array_wafflecap_8_Dummy_4[23]/adc_array_circuit_150n_0/vdrv VDD sky130_fd_pr__pfet_01v8 ad=0p pd=0u as=7.44e+11p ps=6.66e+06u w=800000u l=150000u
X25 adc_array_wafflecap_8_8_0[14|10]/adc_array_circuit_150n_0/cbot adc_array_wafflecap_8_8_0[14|31]/adc_array_circuit_150n_0/sample_n vcm VDD sky130_fd_pr__pfet_01v8 ad=2.64e+11p pd=2.26e+06u as=1.4756e+14p ps=1.3209e+09u w=800000u l=150000u
X26 adc_array_wafflecap_8_8_0[14|0]/adc_array_circuit_150n_0/cbot adc_array_wafflecap_8_8_0[14|31]/adc_array_circuit_150n_0/sample_n vcm VDD sky130_fd_pr__pfet_01v8 ad=2.64e+11p pd=2.26e+06u as=0p ps=0u w=800000u l=150000u
X27 adc_array_wafflecap_8_8_0[13|22]/adc_array_circuit_150n_0/vint2 row_n[22] VSS VSS sky130_fd_pr__nfet_01v8 ad=2.688e+11p pd=2.96e+06u as=0p ps=0u w=420000u l=150000u
X28 adc_array_wafflecap_8_8_0[0|31]/adc_array_circuit_150n_0/sample sample_n VSS VSS sky130_fd_pr__nfet_01v8 ad=1.386e+11p pd=1.5e+06u as=0p ps=0u w=420000u l=150000u
X29 adc_array_wafflecap_8_8_0[2|27]/adc_array_circuit_150n_0/vint1 row_n[27] VDD VDD sky130_fd_pr__pfet_01v8 ad=2.64e+11p pd=2.26e+06u as=0p ps=0u w=800000u l=150000u
X30 VSS col_n[11] adc_array_wafflecap_8_8_0[11|26]/adc_array_circuit_150n_0/vint2 VSS sky130_fd_pr__nfet_01v8 ad=0p pd=0u as=2.688e+11p ps=2.96e+06u w=420000u l=150000u
X31 adc_array_wafflecap_8_8_0[4|8]/adc_array_circuit_150n_0/vdrv col_n[4] adc_array_wafflecap_8_8_0[4|8]/adc_array_circuit_150n_0/vint1 VDD sky130_fd_pr__pfet_01v8 ad=7.44e+11p pd=6.66e+06u as=2.64e+11p ps=2.26e+06u w=800000u l=150000u
X32 adc_array_wafflecap_8_Dummy_1[3]/adc_array_circuit_150n_0/cbot VDD adc_array_wafflecap_8_Dummy_1[3]/adc_array_circuit_150n_0/vdrv VSS sky130_fd_pr__nfet_01v8 ad=1.386e+11p pd=1.5e+06u as=2.604e+11p ps=2.92e+06u w=420000u l=150000u
X33 adc_array_wafflecap_8_8_0[3|11]/adc_array_circuit_150n_0/cbot adc_array_wafflecap_8_8_0[3|31]/adc_array_circuit_150n_0/sample_n adc_array_wafflecap_8_8_0[3|11]/adc_array_circuit_150n_0/vdrv VSS sky130_fd_pr__nfet_01v8 ad=1.386e+11p pd=1.5e+06u as=2.604e+11p ps=2.92e+06u w=420000u l=150000u
X34 adc_array_wafflecap_8_8_0[4|9]/adc_array_circuit_150n_0/vdrv adc_array_wafflecap_8_8_0[4|31]/adc_array_circuit_150n_0/sample adc_array_wafflecap_8_8_0[4|9]/adc_array_circuit_150n_0/cbot VDD sky130_fd_pr__pfet_01v8 ad=7.44e+11p pd=6.66e+06u as=2.64e+11p ps=2.26e+06u w=800000u l=150000u
X35 adc_array_wafflecap_8_8_0[4|18]/adc_array_circuit_150n_0/vint1 row_n[18] VDD VDD sky130_fd_pr__pfet_01v8 ad=2.64e+11p pd=2.26e+06u as=0p ps=0u w=800000u l=150000u
X36 VSS col_n[4] adc_array_wafflecap_8_8_0[4|31]/adc_array_circuit_150n_0/vint2 VSS sky130_fd_pr__nfet_01v8 ad=0p pd=0u as=2.688e+11p ps=2.96e+06u w=420000u l=150000u
X37 vcm VSS adc_array_wafflecap_8_Dummy_4[18]/adc_array_circuit_150n_0/cbot VSS sky130_fd_pr__nfet_01v8 ad=0p pd=0u as=1.386e+11p ps=1.5e+06u w=420000u l=150000u
X38 adc_array_wafflecap_8_8_0[15|21]/adc_array_circuit_150n_0/vint1 row_n[21] VDD VDD sky130_fd_pr__pfet_01v8 ad=2.64e+11p pd=2.26e+06u as=0p ps=0u w=800000u l=150000u
X39 adc_array_wafflecap_8_8_0[8|13]/adc_array_circuit_150n_0/vint2 row_n[13] VSS VSS sky130_fd_pr__nfet_01v8 ad=2.688e+11p pd=2.96e+06u as=0p ps=0u w=420000u l=150000u
X40 adc_array_wafflecap_8_Dummy_0[7]/adc_array_circuit_150n_0/vdrv VSS adc_array_wafflecap_8_Dummy_0[7]/adc_array_circuit_150n_0/vint1 VDD sky130_fd_pr__pfet_01v8 ad=7.44e+11p pd=6.66e+06u as=2.64e+11p ps=2.26e+06u w=800000u l=150000u
X41 adc_array_wafflecap_8_8_0[8|3]/adc_array_circuit_150n_0/vint2 row_n[3] VSS VSS sky130_fd_pr__nfet_01v8 ad=2.688e+11p pd=2.96e+06u as=0p ps=0u w=420000u l=150000u
X42 adc_array_wafflecap_8_8_0[3|22]/adc_array_circuit_150n_0/vint2 colon_n[3] adc_array_wafflecap_8_8_0[3|22]/adc_array_circuit_150n_0/vdrv VSS sky130_fd_pr__nfet_01v8 ad=2.688e+11p pd=2.96e+06u as=2.604e+11p ps=2.92e+06u w=420000u l=150000u
X43 adc_array_wafflecap_8_8_0[11|22]/adc_array_circuit_150n_0/vdrv col_n[11] adc_array_wafflecap_8_8_0[11|22]/adc_array_circuit_150n_0/vint1 VDD sky130_fd_pr__pfet_01v8 ad=7.44e+11p pd=6.66e+06u as=2.64e+11p ps=2.26e+06u w=800000u l=150000u
X44 adc_array_wafflecap_8_8_0[9|26]/adc_array_circuit_150n_0/vint1 row_n[26] VDD VDD sky130_fd_pr__pfet_01v8 ad=2.64e+11p pd=2.26e+06u as=0p ps=0u w=800000u l=150000u
X45 adc_array_wafflecap_8_Dummy_1[2]/adc_array_circuit_150n_0/vint2 row_n[11] VSS VSS sky130_fd_pr__nfet_01v8 ad=2.688e+11p pd=2.96e+06u as=0p ps=0u w=420000u l=150000u
X46 adc_array_wafflecap_8_8_0[3|10]/adc_array_circuit_150n_0/vint2 row_n[10] VSS VSS sky130_fd_pr__nfet_01v8 ad=2.688e+11p pd=2.96e+06u as=0p ps=0u w=420000u l=150000u
X47 adc_array_wafflecap_8_8_0[15|20]/adc_array_circuit_150n_0/cbot adc_array_wafflecap_8_8_0[15|31]/adc_array_circuit_150n_0/sample_n adc_array_wafflecap_8_8_0[15|20]/adc_array_circuit_150n_0/vdrv VSS sky130_fd_pr__nfet_01v8 ad=1.386e+11p pd=1.5e+06u as=2.604e+11p ps=2.92e+06u w=420000u l=150000u
X48 adc_array_wafflecap_8_8_0[10|12]/adc_array_circuit_150n_0/vint1 row_n[12] VDD VDD sky130_fd_pr__pfet_01v8 ad=2.64e+11p pd=2.26e+06u as=0p ps=0u w=800000u l=150000u
X49 adc_array_wafflecap_8_8_0[9|25]/adc_array_circuit_150n_0/cbot adc_array_wafflecap_8_8_0[9|31]/adc_array_circuit_150n_0/sample_n vcm VDD sky130_fd_pr__pfet_01v8 ad=2.64e+11p pd=2.26e+06u as=0p ps=0u w=800000u l=150000u
X50 adc_array_wafflecap_8_8_0[7|22]/adc_array_circuit_150n_0/cbot adc_array_wafflecap_8_8_0[7|31]/adc_array_circuit_150n_0/sample_n adc_array_wafflecap_8_8_0[7|22]/adc_array_circuit_150n_0/vdrv VSS sky130_fd_pr__nfet_01v8 ad=1.386e+11p pd=1.5e+06u as=2.604e+11p ps=2.92e+06u w=420000u l=150000u
X51 adc_array_wafflecap_8_8_0[3|0]/adc_array_circuit_150n_0/vdrv col_n[3] adc_array_wafflecap_8_8_0[3|0]/adc_array_circuit_150n_0/vint1 VDD sky130_fd_pr__pfet_01v8 ad=7.44e+11p pd=6.66e+06u as=2.64e+11p ps=2.26e+06u w=800000u l=150000u
X52 adc_array_wafflecap_8_8_0[0|23]/adc_array_circuit_150n_0/vdrv adc_array_wafflecap_8_8_0[0|31]/adc_array_circuit_150n_0/sample adc_array_wafflecap_8_8_0[0|23]/adc_array_circuit_150n_0/cbot VDD sky130_fd_pr__pfet_01v8 ad=7.44e+11p pd=6.66e+06u as=2.64e+11p ps=2.26e+06u w=800000u l=150000u
X53 vcm adc_array_wafflecap_8_8_0[1|31]/adc_array_circuit_150n_0/sample adc_array_wafflecap_8_8_0[1|30]/adc_array_circuit_150n_0/cbot VSS sky130_fd_pr__nfet_01v8 ad=0p pd=0u as=1.386e+11p ps=1.5e+06u w=420000u l=150000u
X54 adc_array_wafflecap_8_8_0[14|24]/adc_array_circuit_150n_0/cbot adc_array_wafflecap_8_8_0[14|31]/adc_array_circuit_150n_0/sample_n adc_array_wafflecap_8_8_0[14|24]/adc_array_circuit_150n_0/vdrv VSS sky130_fd_pr__nfet_01v8 ad=1.386e+11p pd=1.5e+06u as=2.604e+11p ps=2.92e+06u w=420000u l=150000u
X55 vcm adc_array_wafflecap_8_8_0[11|31]/adc_array_circuit_150n_0/sample adc_array_wafflecap_8_8_0[11|21]/adc_array_circuit_150n_0/cbot VSS sky130_fd_pr__nfet_01v8 ad=0p pd=0u as=1.386e+11p ps=1.5e+06u w=420000u l=150000u
X56 adc_array_wafflecap_8_8_0[10|2]/adc_array_circuit_150n_0/vint1 row_n[2] VDD VDD sky130_fd_pr__pfet_01v8 ad=2.64e+11p pd=2.26e+06u as=0p ps=0u w=800000u l=150000u
X57 VDD colon_n[6] adc_array_wafflecap_8_8_0[6|24]/adc_array_circuit_150n_0/vdrv VDD sky130_fd_pr__pfet_01v8 ad=0p pd=0u as=7.44e+11p ps=6.66e+06u w=800000u l=150000u
X58 adc_array_wafflecap_8_8_0[3|1]/adc_array_circuit_150n_0/vdrv adc_array_wafflecap_8_8_0[3|31]/adc_array_circuit_150n_0/sample adc_array_wafflecap_8_8_0[3|1]/adc_array_circuit_150n_0/cbot VDD sky130_fd_pr__pfet_01v8 ad=7.44e+11p pd=6.66e+06u as=2.64e+11p ps=2.26e+06u w=800000u l=150000u
X59 adc_array_wafflecap_8_8_0[1|16]/adc_array_circuit_150n_0/cbot adc_array_wafflecap_8_8_0[1|31]/adc_array_circuit_150n_0/sample_n adc_array_wafflecap_8_8_0[1|16]/adc_array_circuit_150n_0/vdrv VSS sky130_fd_pr__nfet_01v8 ad=1.386e+11p pd=1.5e+06u as=2.604e+11p ps=2.92e+06u w=420000u l=150000u
X60 adc_array_wafflecap_8_8_0[6|12]/adc_array_circuit_150n_0/vdrv col_n[6] adc_array_wafflecap_8_8_0[6|12]/adc_array_circuit_150n_0/vint1 VDD sky130_fd_pr__pfet_01v8 ad=7.44e+11p pd=6.66e+06u as=2.64e+11p ps=2.26e+06u w=800000u l=150000u
X61 adc_array_wafflecap_8_8_0[6|13]/adc_array_circuit_150n_0/vdrv adc_array_wafflecap_8_8_0[6|31]/adc_array_circuit_150n_0/sample adc_array_wafflecap_8_8_0[6|13]/adc_array_circuit_150n_0/cbot VDD sky130_fd_pr__pfet_01v8 ad=7.44e+11p pd=6.66e+06u as=2.64e+11p ps=2.26e+06u w=800000u l=150000u
X62 adc_array_wafflecap_8_8_0[2|14]/adc_array_circuit_150n_0/vdrv adc_array_wafflecap_8_8_0[2|31]/adc_array_circuit_150n_0/sample adc_array_wafflecap_8_8_0[2|14]/adc_array_circuit_150n_0/cbot VDD sky130_fd_pr__pfet_01v8 ad=7.44e+11p pd=6.66e+06u as=2.64e+11p ps=2.26e+06u w=800000u l=150000u
X63 VDD colon_n[1] adc_array_wafflecap_8_8_0[1|22]/adc_array_circuit_150n_0/vdrv VDD sky130_fd_pr__pfet_01v8 ad=0p pd=0u as=7.44e+11p ps=6.66e+06u w=800000u l=150000u
X64 adc_array_wafflecap_8_8_0[9|15]/adc_array_circuit_150n_0/cbot adc_array_wafflecap_8_8_0[9|31]/adc_array_circuit_150n_0/sample_n adc_array_wafflecap_8_8_0[9|15]/adc_array_circuit_150n_0/vdrv VSS sky130_fd_pr__nfet_01v8 ad=1.386e+11p pd=1.5e+06u as=2.604e+11p ps=2.92e+06u w=420000u l=150000u
X65 adc_array_wafflecap_8_8_0[1|10]/adc_array_circuit_150n_0/vdrv col_n[1] adc_array_wafflecap_8_8_0[1|10]/adc_array_circuit_150n_0/vint1 VDD sky130_fd_pr__pfet_01v8 ad=7.44e+11p pd=6.66e+06u as=2.64e+11p ps=2.26e+06u w=800000u l=150000u
X66 adc_array_wafflecap_8_8_0[9|5]/adc_array_circuit_150n_0/cbot adc_array_wafflecap_8_8_0[9|31]/adc_array_circuit_150n_0/sample_n adc_array_wafflecap_8_8_0[9|5]/adc_array_circuit_150n_0/vdrv VSS sky130_fd_pr__nfet_01v8 ad=1.386e+11p pd=1.5e+06u as=2.604e+11p ps=2.92e+06u w=420000u l=150000u
X67 adc_array_wafflecap_8_8_0[7|21]/adc_array_circuit_150n_0/vint2 row_n[21] VSS VSS sky130_fd_pr__nfet_01v8 ad=2.688e+11p pd=2.96e+06u as=0p ps=0u w=420000u l=150000u
X68 vcm adc_array_wafflecap_8_8_0[0|31]/adc_array_circuit_150n_0/sample adc_array_wafflecap_8_8_0[0|19]/adc_array_circuit_150n_0/cbot VSS sky130_fd_pr__nfet_01v8 ad=0p pd=0u as=1.386e+11p ps=1.5e+06u w=420000u l=150000u
X69 adc_array_wafflecap_8_8_0[1|15]/adc_array_circuit_150n_0/vint2 row_n[15] VSS VSS sky130_fd_pr__nfet_01v8 ad=2.688e+11p pd=2.96e+06u as=0p ps=0u w=420000u l=150000u
X70 adc_array_wafflecap_8_8_0[15|0]/adc_array_circuit_150n_0/vdrv col_n[15] adc_array_wafflecap_8_8_0[15|0]/adc_array_circuit_150n_0/vint1 VDD sky130_fd_pr__pfet_01v8 ad=7.44e+11p pd=6.66e+06u as=2.64e+11p ps=2.26e+06u w=800000u l=150000u
X71 adc_array_wafflecap_8_8_0[15|10]/adc_array_circuit_150n_0/vdrv col_n[15] adc_array_wafflecap_8_8_0[15|10]/adc_array_circuit_150n_0/vint1 VDD sky130_fd_pr__pfet_01v8 ad=7.44e+11p pd=6.66e+06u as=2.64e+11p ps=2.26e+06u w=800000u l=150000u
X72 adc_array_wafflecap_8_8_0[13|21]/adc_array_circuit_150n_0/vint2 colon_n[13] adc_array_wafflecap_8_8_0[13|21]/adc_array_circuit_150n_0/vdrv VSS sky130_fd_pr__nfet_01v8 ad=2.688e+11p pd=2.96e+06u as=2.604e+11p ps=2.92e+06u w=420000u l=150000u
X73 adc_array_wafflecap_8_8_0[5|5]/adc_array_circuit_150n_0/vdrv adc_array_wafflecap_8_8_0[5|31]/adc_array_circuit_150n_0/sample adc_array_wafflecap_8_8_0[5|5]/adc_array_circuit_150n_0/cbot VDD sky130_fd_pr__pfet_01v8 ad=7.44e+11p pd=6.66e+06u as=2.64e+11p ps=2.26e+06u w=800000u l=150000u
X74 adc_array_wafflecap_8_8_0[1|26]/adc_array_circuit_150n_0/vint2 colon_n[1] adc_array_wafflecap_8_8_0[1|26]/adc_array_circuit_150n_0/vdrv VSS sky130_fd_pr__nfet_01v8 ad=2.688e+11p pd=2.96e+06u as=2.604e+11p ps=2.92e+06u w=420000u l=150000u
X75 adc_array_wafflecap_8_8_0[1|6]/adc_array_circuit_150n_0/vdrv adc_array_wafflecap_8_8_0[1|31]/adc_array_circuit_150n_0/sample adc_array_wafflecap_8_8_0[1|6]/adc_array_circuit_150n_0/cbot VDD sky130_fd_pr__pfet_01v8 ad=7.44e+11p pd=6.66e+06u as=2.64e+11p ps=2.26e+06u w=800000u l=150000u
X76 vcm adc_array_wafflecap_8_8_0[15|31]/adc_array_circuit_150n_0/sample adc_array_wafflecap_8_8_0[15|9]/adc_array_circuit_150n_0/cbot VSS sky130_fd_pr__nfet_01v8 ad=0p pd=0u as=1.386e+11p ps=1.5e+06u w=420000u l=150000u
X77 adc_array_wafflecap_8_8_0[13|31]/adc_array_circuit_150n_0/cbot adc_array_wafflecap_8_8_0[13|31]/adc_array_circuit_150n_0/sample_n vcm VDD sky130_fd_pr__pfet_01v8 ad=2.64e+11p pd=2.26e+06u as=0p ps=0u w=800000u l=150000u
X78 adc_array_wafflecap_8_8_0[12|25]/adc_array_circuit_150n_0/vint2 colon_n[12] adc_array_wafflecap_8_8_0[12|25]/adc_array_circuit_150n_0/vdrv VSS sky130_fd_pr__nfet_01v8 ad=2.688e+11p pd=2.96e+06u as=2.604e+11p ps=2.92e+06u w=420000u l=150000u
X79 adc_array_wafflecap_8_8_0[10|28]/adc_array_circuit_150n_0/vdrv adc_array_wafflecap_8_8_0[10|31]/adc_array_circuit_150n_0/sample adc_array_wafflecap_8_8_0[10|28]/adc_array_circuit_150n_0/cbot VDD sky130_fd_pr__pfet_01v8 ad=7.44e+11p pd=6.66e+06u as=2.64e+11p ps=2.26e+06u w=800000u l=150000u
X80 VSS col_n[9] adc_array_wafflecap_8_8_0[9|22]/adc_array_circuit_150n_0/vint2 VSS sky130_fd_pr__nfet_01v8 ad=0p pd=0u as=2.688e+11p ps=2.96e+06u w=420000u l=150000u
X81 VSS col_n[7] adc_array_wafflecap_8_8_0[7|6]/adc_array_circuit_150n_0/vint2 VSS sky130_fd_pr__nfet_01v8 ad=0p pd=0u as=2.688e+11p ps=2.96e+06u w=420000u l=150000u
X82 VSS sample_n adc_array_wafflecap_8_8_0[15|31]/adc_array_circuit_150n_0/sample VSS sky130_fd_pr__nfet_01v8 ad=0p pd=0u as=1.386e+11p ps=1.5e+06u w=420000u l=150000u
X83 adc_array_wafflecap_8_8_0[11|6]/adc_array_circuit_150n_0/vint2 colon_n[11] adc_array_wafflecap_8_8_0[11|6]/adc_array_circuit_150n_0/vdrv VSS sky130_fd_pr__nfet_01v8 ad=2.688e+11p pd=2.96e+06u as=2.604e+11p ps=2.92e+06u w=420000u l=150000u
X84 adc_array_wafflecap_8_8_0[11|16]/adc_array_circuit_150n_0/vint2 colon_n[11] adc_array_wafflecap_8_8_0[11|16]/adc_array_circuit_150n_0/vdrv VSS sky130_fd_pr__nfet_01v8 ad=2.688e+11p pd=2.96e+06u as=2.604e+11p ps=2.92e+06u w=420000u l=150000u
X85 adc_array_wafflecap_8_8_0[9|14]/adc_array_circuit_150n_0/vdrv adc_array_wafflecap_8_8_0[9|31]/adc_array_circuit_150n_0/sample adc_array_wafflecap_8_8_0[9|14]/adc_array_circuit_150n_0/cbot VDD sky130_fd_pr__pfet_01v8 ad=7.44e+11p pd=6.66e+06u as=2.64e+11p ps=2.26e+06u w=800000u l=150000u
X86 adc_array_wafflecap_8_8_0[0|2]/adc_array_circuit_150n_0/vdrv col_n[0] adc_array_wafflecap_8_8_0[0|2]/adc_array_circuit_150n_0/vint1 VDD sky130_fd_pr__pfet_01v8 ad=7.44e+11p pd=6.66e+06u as=2.64e+11p ps=2.26e+06u w=800000u l=150000u
X87 vcm adc_array_wafflecap_8_8_0[14|31]/adc_array_circuit_150n_0/sample adc_array_wafflecap_8_8_0[14|13]/adc_array_circuit_150n_0/cbot VSS sky130_fd_pr__nfet_01v8 ad=0p pd=0u as=1.386e+11p ps=1.5e+06u w=420000u l=150000u
X88 adc_array_wafflecap_8_8_0[12|17]/adc_array_circuit_150n_0/cbot adc_array_wafflecap_8_8_0[12|31]/adc_array_circuit_150n_0/sample_n adc_array_wafflecap_8_8_0[12|17]/adc_array_circuit_150n_0/vdrv VSS sky130_fd_pr__nfet_01v8 ad=1.386e+11p pd=1.5e+06u as=2.604e+11p ps=2.92e+06u w=420000u l=150000u
X89 adc_array_wafflecap_8_8_0[9|4]/adc_array_circuit_150n_0/vdrv adc_array_wafflecap_8_8_0[9|31]/adc_array_circuit_150n_0/sample adc_array_wafflecap_8_8_0[9|4]/adc_array_circuit_150n_0/cbot VDD sky130_fd_pr__pfet_01v8 ad=7.44e+11p pd=6.66e+06u as=2.64e+11p ps=2.26e+06u w=800000u l=150000u
X90 adc_array_wafflecap_8_8_0[7|21]/adc_array_circuit_150n_0/vdrv col_n[7] adc_array_wafflecap_8_8_0[7|21]/adc_array_circuit_150n_0/vint1 VDD sky130_fd_pr__pfet_01v8 ad=7.44e+11p pd=6.66e+06u as=2.64e+11p ps=2.26e+06u w=800000u l=150000u
X91 adc_array_wafflecap_8_8_0[4|19]/adc_array_circuit_150n_0/cbot adc_array_wafflecap_8_8_0[4|31]/adc_array_circuit_150n_0/sample_n vcm VDD sky130_fd_pr__pfet_01v8 ad=2.64e+11p pd=2.26e+06u as=0p ps=0u w=800000u l=150000u
X92 VDD colon_n[4] adc_array_wafflecap_8_8_0[4|28]/adc_array_circuit_150n_0/vdrv VDD sky130_fd_pr__pfet_01v8 ad=0p pd=0u as=7.44e+11p ps=6.66e+06u w=800000u l=150000u
X93 adc_array_wafflecap_8_Dummy_1[6]/adc_array_circuit_150n_0/vdrv VSS adc_array_wafflecap_8_Dummy_1[6]/adc_array_circuit_150n_0/vint1 VDD sky130_fd_pr__pfet_01v8 ad=7.44e+11p pd=6.66e+06u as=2.64e+11p ps=2.26e+06u w=800000u l=150000u
X94 vcm adc_array_wafflecap_8_8_0[14|31]/adc_array_circuit_150n_0/sample adc_array_wafflecap_8_8_0[14|3]/adc_array_circuit_150n_0/cbot VSS sky130_fd_pr__nfet_01v8 ad=0p pd=0u as=1.386e+11p ps=1.5e+06u w=420000u l=150000u
X95 adc_array_wafflecap_8_8_0[5|3]/adc_array_circuit_150n_0/cbot adc_array_wafflecap_8_8_0[5|31]/adc_array_circuit_150n_0/sample_n adc_array_wafflecap_8_8_0[5|3]/adc_array_circuit_150n_0/vdrv VSS sky130_fd_pr__nfet_01v8 ad=1.386e+11p pd=1.5e+06u as=2.604e+11p ps=2.92e+06u w=420000u l=150000u
X96 adc_array_wafflecap_8_8_0[4|17]/adc_array_circuit_150n_0/vdrv adc_array_wafflecap_8_8_0[4|31]/adc_array_circuit_150n_0/sample adc_array_wafflecap_8_8_0[4|17]/adc_array_circuit_150n_0/cbot VDD sky130_fd_pr__pfet_01v8 ad=0p pd=0u as=2.64e+11p ps=2.26e+06u w=800000u l=150000u
X97 VDD colon_n[11] adc_array_wafflecap_8_8_0[11|21]/adc_array_circuit_150n_0/vdrv VDD sky130_fd_pr__pfet_01v8 ad=0p pd=0u as=7.44e+11p ps=6.66e+06u w=800000u l=150000u
X98 VDD VSS adc_array_wafflecap_8_Dummy_3[1]/adc_array_circuit_150n_0/vdrv VDD sky130_fd_pr__pfet_01v8 ad=0p pd=0u as=7.44e+11p ps=6.66e+06u w=800000u l=150000u
X99 VDD colon_n[10] adc_array_wafflecap_8_8_0[10|2]/adc_array_circuit_150n_0/vdrv VDD sky130_fd_pr__pfet_01v8 ad=0p pd=0u as=7.44e+11p ps=6.66e+06u w=800000u l=150000u
X100 VDD colon_n[10] adc_array_wafflecap_8_8_0[10|12]/adc_array_circuit_150n_0/vdrv VDD sky130_fd_pr__pfet_01v8 ad=0p pd=0u as=7.44e+11p ps=6.66e+06u w=800000u l=150000u
X101 VDD colon_n[5] adc_array_wafflecap_8_8_0[5|10]/adc_array_circuit_150n_0/vdrv VDD sky130_fd_pr__pfet_01v8 ad=0p pd=0u as=7.44e+11p ps=6.66e+06u w=800000u l=150000u
X102 VDD colon_n[9] adc_array_wafflecap_8_8_0[9|16]/adc_array_circuit_150n_0/vdrv VDD sky130_fd_pr__pfet_01v8 ad=0p pd=0u as=7.44e+11p ps=6.66e+06u w=800000u l=150000u
X103 VSS VSS adc_array_wafflecap_8_Dummy_2[4]/adc_array_circuit_150n_0/vint2 VSS sky130_fd_pr__nfet_01v8 ad=0p pd=0u as=2.688e+11p ps=2.96e+06u w=420000u l=150000u
X104 adc_array_wafflecap_8_8_0[14|20]/adc_array_circuit_150n_0/vint2 row_n[20] VSS VSS sky130_fd_pr__nfet_01v8 ad=2.688e+11p pd=2.96e+06u as=0p ps=0u w=420000u l=150000u
X105 VDD colon_n[9] adc_array_wafflecap_8_8_0[9|6]/adc_array_circuit_150n_0/vdrv VDD sky130_fd_pr__pfet_01v8 ad=0p pd=0u as=7.44e+11p ps=6.66e+06u w=800000u l=150000u
X106 adc_array_wafflecap_8_8_0[7|6]/adc_array_circuit_150n_0/vint1 row_n[6] VDD VDD sky130_fd_pr__pfet_01v8 ad=2.64e+11p pd=2.26e+06u as=0p ps=0u w=800000u l=150000u
X107 adc_array_wafflecap_8_8_0[3|7]/adc_array_circuit_150n_0/vint1 row_n[7] VDD VDD sky130_fd_pr__pfet_01v8 ad=2.64e+11p pd=2.26e+06u as=0p ps=0u w=800000u l=150000u
X108 adc_array_wafflecap_8_8_0[3|8]/adc_array_circuit_150n_0/cbot adc_array_wafflecap_8_8_0[3|31]/adc_array_circuit_150n_0/sample_n vcm VDD sky130_fd_pr__pfet_01v8 ad=2.64e+11p pd=2.26e+06u as=0p ps=0u w=800000u l=150000u
X109 VDD colon_n[0] adc_array_wafflecap_8_8_0[0|8]/adc_array_circuit_150n_0/vdrv VDD sky130_fd_pr__pfet_01v8 ad=0p pd=0u as=7.44e+11p ps=6.66e+06u w=800000u l=150000u
X110 adc_array_wafflecap_8_8_0[3|30]/adc_array_circuit_150n_0/vint2 colon_n[3] adc_array_wafflecap_8_8_0[3|30]/adc_array_circuit_150n_0/vdrv VSS sky130_fd_pr__nfet_01v8 ad=2.688e+11p pd=2.96e+06u as=2.604e+11p ps=2.92e+06u w=420000u l=150000u
X111 VSS col_n[13] adc_array_wafflecap_8_8_0[13|10]/adc_array_circuit_150n_0/vint2 VSS sky130_fd_pr__nfet_01v8 ad=0p pd=0u as=2.688e+11p ps=2.96e+06u w=420000u l=150000u
X112 adc_array_wafflecap_8_8_0[0|13]/adc_array_circuit_150n_0/vint2 colon_n[0] adc_array_wafflecap_8_8_0[0|13]/adc_array_circuit_150n_0/vdrv VSS sky130_fd_pr__nfet_01v8 ad=2.688e+11p pd=2.96e+06u as=2.604e+11p ps=2.92e+06u w=420000u l=150000u
X113 adc_array_wafflecap_8_8_0[2|24]/adc_array_circuit_150n_0/cbot adc_array_wafflecap_8_8_0[2|31]/adc_array_circuit_150n_0/sample_n vcm VDD sky130_fd_pr__pfet_01v8 ad=2.64e+11p pd=2.26e+06u as=0p ps=0u w=800000u l=150000u
X114 VSS col_n[13] adc_array_wafflecap_8_8_0[13|0]/adc_array_circuit_150n_0/vint2 VSS sky130_fd_pr__nfet_01v8 ad=0p pd=0u as=2.688e+11p ps=2.96e+06u w=420000u l=150000u
X115 adc_array_wafflecap_8_Dummy_4[20]/adc_array_circuit_150n_0/vint1 row_n[19] VDD VDD sky130_fd_pr__pfet_01v8 ad=2.64e+11p pd=2.26e+06u as=0p ps=0u w=800000u l=150000u
X116 adc_array_wafflecap_8_8_0[14|7]/adc_array_circuit_150n_0/vdrv adc_array_wafflecap_8_8_0[14|31]/adc_array_circuit_150n_0/sample adc_array_wafflecap_8_8_0[14|7]/adc_array_circuit_150n_0/cbot VDD sky130_fd_pr__pfet_01v8 ad=7.44e+11p pd=6.66e+06u as=2.64e+11p ps=2.26e+06u w=800000u l=150000u
X117 VSS col_n[12] adc_array_wafflecap_8_8_0[12|14]/adc_array_circuit_150n_0/vint2 VSS sky130_fd_pr__nfet_01v8 ad=0p pd=0u as=2.688e+11p ps=2.96e+06u w=420000u l=150000u
X118 adc_array_wafflecap_8_8_0[10|19]/adc_array_circuit_150n_0/cbot adc_array_wafflecap_8_8_0[10|31]/adc_array_circuit_150n_0/sample_n adc_array_wafflecap_8_8_0[10|19]/adc_array_circuit_150n_0/vdrv VSS sky130_fd_pr__nfet_01v8 ad=1.386e+11p pd=1.5e+06u as=2.604e+11p ps=2.92e+06u w=420000u l=150000u
X119 adc_array_wafflecap_8_8_0[9|11]/adc_array_circuit_150n_0/vint2 row_n[11] VSS VSS sky130_fd_pr__nfet_01v8 ad=2.688e+11p pd=2.96e+06u as=0p ps=0u w=420000u l=150000u
X120 adc_array_wafflecap_8_Dummy_5[15]/adc_array_circuit_150n_0/vint1 VDD VDD VDD sky130_fd_pr__pfet_01v8 ad=2.64e+11p pd=2.26e+06u as=0p ps=0u w=800000u l=150000u
X121 adc_array_wafflecap_8_8_0[12|29]/adc_array_circuit_150n_0/vdrv col_n[12] adc_array_wafflecap_8_8_0[12|29]/adc_array_circuit_150n_0/vint1 VDD sky130_fd_pr__pfet_01v8 ad=7.44e+11p pd=6.66e+06u as=2.64e+11p ps=2.26e+06u w=800000u l=150000u
X122 VSS col_n[12] adc_array_wafflecap_8_8_0[12|4]/adc_array_circuit_150n_0/vint2 VSS sky130_fd_pr__nfet_01v8 ad=0p pd=0u as=2.688e+11p ps=2.96e+06u w=420000u l=150000u
X123 adc_array_wafflecap_8_8_0[9|1]/adc_array_circuit_150n_0/vint2 row_n[1] VSS VSS sky130_fd_pr__nfet_01v8 ad=2.688e+11p pd=2.96e+06u as=0p ps=0u w=420000u l=150000u
X124 VDD colon_n[3] adc_array_wafflecap_8_8_0[3|15]/adc_array_circuit_150n_0/vdrv VDD sky130_fd_pr__pfet_01v8 ad=0p pd=0u as=7.44e+11p ps=6.66e+06u w=800000u l=150000u
X125 adc_array_wafflecap_8_8_0[0|29]/adc_array_circuit_150n_0/cbot adc_array_wafflecap_8_8_0[0|31]/adc_array_circuit_150n_0/sample_n adc_array_wafflecap_8_8_0[0|29]/adc_array_circuit_150n_0/vdrv VSS sky130_fd_pr__nfet_01v8 ad=1.386e+11p pd=1.5e+06u as=2.604e+11p ps=2.92e+06u w=420000u l=150000u
X126 adc_array_wafflecap_8_8_0[0|24]/adc_array_circuit_150n_0/vdrv col_n[0] adc_array_wafflecap_8_8_0[0|24]/adc_array_circuit_150n_0/vint1 VDD sky130_fd_pr__pfet_01v8 ad=7.44e+11p pd=6.66e+06u as=2.64e+11p ps=2.26e+06u w=800000u l=150000u
X127 VDD colon_n[1] adc_array_wafflecap_8_8_0[1|30]/adc_array_circuit_150n_0/vdrv VDD sky130_fd_pr__pfet_01v8 ad=0p pd=0u as=7.44e+11p ps=6.66e+06u w=800000u l=150000u
X128 vcm adc_array_wafflecap_8_8_0[2|31]/adc_array_circuit_150n_0/sample adc_array_wafflecap_8_8_0[2|10]/adc_array_circuit_150n_0/cbot VSS sky130_fd_pr__nfet_01v8 ad=0p pd=0u as=1.386e+11p ps=1.5e+06u w=420000u l=150000u
X129 adc_array_wafflecap_8_8_0[11|10]/adc_array_circuit_150n_0/vint1 row_n[10] VDD VDD sky130_fd_pr__pfet_01v8 ad=2.64e+11p pd=2.26e+06u as=0p ps=0u w=800000u l=150000u
X130 adc_array_wafflecap_8_8_0[5|11]/adc_array_circuit_150n_0/vint1 row_n[11] VDD VDD sky130_fd_pr__pfet_01v8 ad=2.64e+11p pd=2.26e+06u as=0p ps=0u w=800000u l=150000u
X131 adc_array_wafflecap_8_8_0[5|12]/adc_array_circuit_150n_0/cbot adc_array_wafflecap_8_8_0[5|31]/adc_array_circuit_150n_0/sample_n vcm VDD sky130_fd_pr__pfet_01v8 ad=2.64e+11p pd=2.26e+06u as=0p ps=0u w=800000u l=150000u
X132 adc_array_wafflecap_8_8_0[1|13]/adc_array_circuit_150n_0/cbot adc_array_wafflecap_8_8_0[1|31]/adc_array_circuit_150n_0/sample_n vcm VDD sky130_fd_pr__pfet_01v8 ad=2.64e+11p pd=2.26e+06u as=0p ps=0u w=800000u l=150000u
X133 adc_array_wafflecap_8_8_0[11|0]/adc_array_circuit_150n_0/vint1 row_n[0] VDD VDD sky130_fd_pr__pfet_01v8 ad=2.64e+11p pd=2.26e+06u as=0p ps=0u w=800000u l=150000u