* NGSPICE file created from adc_array_matrix.ext - technology: sky130A

.subckt adc_array_circuit_150n_8 vcom sample sample_n col_n colon_n row_n cbot VDD
+ VSS
X0 VDD colon_n vdrv VDD sky130_fd_pr__pfet_01v8 ad=2.64e+11p pd=2.26e+06u as=7.44e+11p ps=6.66e+06u w=800000u l=150000u
X1 VSS col_n vint2 VSS sky130_fd_pr__nfet_01v8 ad=1.386e+11p pd=1.5e+06u as=2.688e+11p ps=2.96e+06u w=420000u l=150000u
X2 vint2 colon_n vdrv VSS sky130_fd_pr__nfet_01v8 ad=0p pd=0u as=2.604e+11p ps=2.92e+06u w=420000u l=150000u
X3 vint2 row_n VSS VSS sky130_fd_pr__nfet_01v8 ad=0p pd=0u as=0p ps=0u w=420000u l=150000u
X4 cbot sample_n vdrv VSS sky130_fd_pr__nfet_01v8 ad=1.386e+11p pd=1.5e+06u as=0p ps=0u w=420000u l=150000u
X5 vdrv col_n vint1 VDD sky130_fd_pr__pfet_01v8 ad=0p pd=0u as=2.64e+11p ps=2.26e+06u w=800000u l=150000u
X6 vcom sample cbot VSS sky130_fd_pr__nfet_01v8 ad=1.302e+11p pd=1.46e+06u as=0p ps=0u w=420000u l=150000u
X7 cbot sample_n vcom VDD sky130_fd_pr__pfet_01v8 ad=2.64e+11p pd=2.26e+06u as=2.48e+11p ps=2.22e+06u w=800000u l=150000u
X8 vdrv sample cbot VDD sky130_fd_pr__pfet_01v8 ad=0p pd=0u as=0p ps=0u w=800000u l=150000u
X9 vint1 row_n VDD VDD sky130_fd_pr__pfet_01v8 ad=0p pd=0u as=0p ps=0u w=800000u l=150000u
.ends

.subckt adc_array_wafflecap_8_8 sample_n colon_n vcom row_n ctop sample vdd col_n
+ VSS
Xadc_array_circuit_150n_0 vcom sample sample_n col_n colon_n row_n adc_array_circuit_150n_0/cbot
+ vdd VSS adc_array_circuit_150n_8
.ends

.subckt adc_array_circuit_150n_Drv vcom col_n colon_n row_n sample_n_i sample_i sample_o
+ sample_n_o VDD VSS
X0 sample_n_o sample_i VSS VSS sky130_fd_pr__nfet_01v8 ad=1.386e+11p pd=1.5e+06u as=5.208e+11p ps=5.84e+06u w=420000u l=150000u
X1 VSS sample_i sample_n_o VSS sky130_fd_pr__nfet_01v8 ad=0p pd=0u as=0p ps=0u w=420000u l=150000u
X2 sample_n_o sample_i VDD VDD sky130_fd_pr__pfet_01v8 ad=2.64e+11p pd=2.26e+06u as=9.92e+11p ps=8.88e+06u w=800000u l=150000u
X3 VDD sample_i sample_n_o VDD sky130_fd_pr__pfet_01v8 ad=0p pd=0u as=0p ps=0u w=800000u l=150000u
X4 sample_o sample_n_i VSS VSS sky130_fd_pr__nfet_01v8 ad=1.386e+11p pd=1.5e+06u as=0p ps=0u w=420000u l=150000u
X5 VSS sample_n_i sample_o VSS sky130_fd_pr__nfet_01v8 ad=0p pd=0u as=0p ps=0u w=420000u l=150000u
X6 sample_o sample_n_i VDD VDD sky130_fd_pr__pfet_01v8 ad=2.64e+11p pd=2.26e+06u as=0p ps=0u w=800000u l=150000u
X7 VDD sample_n_i sample_o VDD sky130_fd_pr__pfet_01v8 ad=0p pd=0u as=0p ps=0u w=800000u l=150000u
.ends

.subckt adc_array_wafflecap_8_Drv ctop colon_n vcom row_n sample_i sample_n_i sample_n_o
+ sample_o vdd col_n VSS
Xadc_array_circuit_150n_0 vcom col_n colon_n row_n sample_n_i sample_i sample_o sample_n_o
+ vdd VSS adc_array_circuit_150n_Drv
.ends

.subckt adc_array_circuit_150n_Dummy vcom sample sample_n col_n colon_n row_n cbot
+ VDD VSS
X0 VDD colon_n vdrv VDD sky130_fd_pr__pfet_01v8 ad=2.64e+11p pd=2.26e+06u as=7.44e+11p ps=6.66e+06u w=800000u l=150000u
X1 VSS col_n vint2 VSS sky130_fd_pr__nfet_01v8 ad=1.386e+11p pd=1.5e+06u as=2.688e+11p ps=2.96e+06u w=420000u l=150000u
X2 vint2 colon_n vdrv VSS sky130_fd_pr__nfet_01v8 ad=0p pd=0u as=2.604e+11p ps=2.92e+06u w=420000u l=150000u
X3 vint2 row_n VSS VSS sky130_fd_pr__nfet_01v8 ad=0p pd=0u as=0p ps=0u w=420000u l=150000u
X4 cbot sample_n vdrv VSS sky130_fd_pr__nfet_01v8 ad=1.386e+11p pd=1.5e+06u as=0p ps=0u w=420000u l=150000u
X5 vdrv col_n vint1 VDD sky130_fd_pr__pfet_01v8 ad=0p pd=0u as=2.64e+11p ps=2.26e+06u w=800000u l=150000u
X6 vcom sample cbot VSS sky130_fd_pr__nfet_01v8 ad=1.302e+11p pd=1.46e+06u as=0p ps=0u w=420000u l=150000u
X7 cbot sample_n vcom VDD sky130_fd_pr__pfet_01v8 ad=2.64e+11p pd=2.26e+06u as=2.48e+11p ps=2.22e+06u w=800000u l=150000u
X8 vdrv sample cbot VDD sky130_fd_pr__pfet_01v8 ad=0p pd=0u as=0p ps=0u w=800000u l=150000u
X9 vint1 row_n VDD VDD sky130_fd_pr__pfet_01v8 ad=0p pd=0u as=0p ps=0u w=800000u l=150000u
.ends

.subckt adc_array_wafflecap_8_Dummy sample_n colon_n vcom row_n ctop sample vdd col_n
+ VSS
Xadc_array_circuit_150n_0 vcom sample sample_n col_n colon_n row_n adc_array_circuit_150n_0/cbot
+ vdd VSS adc_array_circuit_150n_Dummy
.ends

.subckt adc_array_circuit_150n_4 vcom sample sample_n col_n colon_n row_n cbot en_n
+ VDD VSS
X0 VDD en_n vdrv VDD sky130_fd_pr__pfet_01v8 ad=2.64e+11p pd=2.26e+06u as=7.44e+11p ps=6.66e+06u w=800000u l=150000u
X1 VSS en_n vint2 VSS sky130_fd_pr__nfet_01v8 ad=1.386e+11p pd=1.5e+06u as=2.688e+11p ps=2.96e+06u w=420000u l=150000u
X2 vint2 en_n vdrv VSS sky130_fd_pr__nfet_01v8 ad=0p pd=0u as=2.604e+11p ps=2.92e+06u w=420000u l=150000u
X3 vint2 en_n VSS VSS sky130_fd_pr__nfet_01v8 ad=0p pd=0u as=0p ps=0u w=420000u l=150000u
X4 cbot sample_n vdrv VSS sky130_fd_pr__nfet_01v8 ad=1.386e+11p pd=1.5e+06u as=0p ps=0u w=420000u l=150000u
X5 vdrv en_n vint1 VDD sky130_fd_pr__pfet_01v8 ad=0p pd=0u as=2.64e+11p ps=2.26e+06u w=800000u l=150000u
X6 vcom sample cbot VSS sky130_fd_pr__nfet_01v8 ad=1.302e+11p pd=1.46e+06u as=0p ps=0u w=420000u l=150000u
X7 cbot sample_n vcom VDD sky130_fd_pr__pfet_01v8 ad=2.64e+11p pd=2.26e+06u as=2.48e+11p ps=2.22e+06u w=800000u l=150000u
X8 vdrv sample cbot VDD sky130_fd_pr__pfet_01v8 ad=0p pd=0u as=0p ps=0u w=800000u l=150000u
X9 vint1 en_n VDD VDD sky130_fd_pr__pfet_01v8 ad=0p pd=0u as=0p ps=0u w=800000u l=150000u
.ends

.subckt adc_array_wafflecap_8_4 sample_n colon_n col_n vcom row_n en_n ctop sample
+ vdd VSS
Xadc_array_circuit_150n_0 vcom sample sample_n col_n colon_n row_n adc_array_circuit_150n_0/cbot
+ en_n vdd VSS adc_array_circuit_150n_4
.ends

.subckt adc_array_circuit_150n_2 vcom sample sample_n col_n colon_n row_n cbot en_n
+ VDD VSS
X0 VDD en_n vdrv VDD sky130_fd_pr__pfet_01v8 ad=2.64e+11p pd=2.26e+06u as=7.44e+11p ps=6.66e+06u w=800000u l=150000u
X1 VSS en_n vint2 VSS sky130_fd_pr__nfet_01v8 ad=1.386e+11p pd=1.5e+06u as=2.688e+11p ps=2.96e+06u w=420000u l=150000u
X2 vint2 en_n vdrv VSS sky130_fd_pr__nfet_01v8 ad=0p pd=0u as=2.604e+11p ps=2.92e+06u w=420000u l=150000u
X3 vint2 en_n VSS VSS sky130_fd_pr__nfet_01v8 ad=0p pd=0u as=0p ps=0u w=420000u l=150000u
X4 cbot sample_n vdrv VSS sky130_fd_pr__nfet_01v8 ad=1.386e+11p pd=1.5e+06u as=0p ps=0u w=420000u l=150000u
X5 vdrv en_n vint1 VDD sky130_fd_pr__pfet_01v8 ad=0p pd=0u as=2.64e+11p ps=2.26e+06u w=800000u l=150000u
X6 vcom sample cbot VSS sky130_fd_pr__nfet_01v8 ad=1.302e+11p pd=1.46e+06u as=0p ps=0u w=420000u l=150000u
X7 cbot sample_n vcom VDD sky130_fd_pr__pfet_01v8 ad=2.64e+11p pd=2.26e+06u as=2.48e+11p ps=2.22e+06u w=800000u l=150000u
X8 vdrv sample cbot VDD sky130_fd_pr__pfet_01v8 ad=0p pd=0u as=0p ps=0u w=800000u l=150000u
X9 vint1 en_n VDD VDD sky130_fd_pr__pfet_01v8 ad=0p pd=0u as=0p ps=0u w=800000u l=150000u
.ends

.subckt adc_array_wafflecap_8_2 vdd sample_n colon_n col_n sample vcom row_n en_n
+ adc_array_wafflecap_8_2_25um2_0/m3_164_740# VSS
Xadc_array_circuit_150n_0 vcom sample sample_n col_n colon_n row_n adc_array_circuit_150n_0/cbot
+ en_n vdd VSS adc_array_circuit_150n_2
.ends

.subckt adc_noise_decoup_cell1 nmoscap_top nmoscap_bot mimcap_top mimcap_bot pwell
X0 mimcap_top mimcap_bot sky130_fd_pr__cap_mim_m3_1 l=1.72e+07u w=1.72e+07u
X1 nmoscap_bot nmoscap_top nmoscap_bot pwell sky130_fd_pr__nfet_01v8 ad=2.296e+13p pd=6.84e+07u as=0p ps=0u w=1.64e+07u l=1.6e+07u
.ends

.subckt adc_array_circuit_150n_Gate vcom sample sample_n col_n colon_n row_n sw_n
+ in sw out VDD VSS
X0 in sw out VSS sky130_fd_pr__nfet_01v8 ad=2.9e+11p pd=3.16e+06u as=1.45e+11p ps=1.58e+06u w=500000u l=500000u
X1 out sw in VSS sky130_fd_pr__nfet_01v8 ad=0p pd=0u as=0p ps=0u w=500000u l=500000u
X2 out sw_n in VDD sky130_fd_pr__pfet_01v8 ad=5.9e+11p pd=3.18e+06u as=5.8e+11p ps=5.16e+06u w=1e+06u l=1e+06u
X3 in sw_n out VDD sky130_fd_pr__pfet_01v8 ad=0p pd=0u as=0p ps=0u w=1e+06u l=1e+06u
.ends

.subckt adc_array_wafflecap_8_Gate sample_n colon_n vcom row_n sw_n in sw ctop sample
+ VDD col_n VSS
Xadc_array_circuit_150n_0 vcom sample sample_n col_n colon_n row_n sw_n in sw ctop
+ VDD VSS adc_array_circuit_150n_Gate
.ends

.subckt adc_array_circuit_150n_1 vcom sample sample_n col_n colon_n row_n cbot en_n
+ VDD VSS
X0 VDD en_n vdrv VDD sky130_fd_pr__pfet_01v8 ad=2.64e+11p pd=2.26e+06u as=7.44e+11p ps=6.66e+06u w=800000u l=150000u
X1 VSS en_n vint2 VSS sky130_fd_pr__nfet_01v8 ad=1.386e+11p pd=1.5e+06u as=2.688e+11p ps=2.96e+06u w=420000u l=150000u
X2 vint2 en_n vdrv VSS sky130_fd_pr__nfet_01v8 ad=0p pd=0u as=2.604e+11p ps=2.92e+06u w=420000u l=150000u
X3 vint2 en_n VSS VSS sky130_fd_pr__nfet_01v8 ad=0p pd=0u as=0p ps=0u w=420000u l=150000u
X4 cbot sample_n vdrv VSS sky130_fd_pr__nfet_01v8 ad=1.386e+11p pd=1.5e+06u as=0p ps=0u w=420000u l=150000u
X5 vdrv en_n vint1 VDD sky130_fd_pr__pfet_01v8 ad=0p pd=0u as=2.64e+11p ps=2.26e+06u w=800000u l=150000u
X6 vcom sample cbot VSS sky130_fd_pr__nfet_01v8 ad=1.302e+11p pd=1.46e+06u as=0p ps=0u w=420000u l=150000u
X7 cbot sample_n vcom VDD sky130_fd_pr__pfet_01v8 ad=2.64e+11p pd=2.26e+06u as=2.48e+11p ps=2.22e+06u w=800000u l=150000u
X8 vdrv sample cbot VDD sky130_fd_pr__pfet_01v8 ad=0p pd=0u as=0p ps=0u w=800000u l=150000u
X9 vint1 en_n VDD VDD sky130_fd_pr__pfet_01v8 ad=0p pd=0u as=0p ps=0u w=800000u l=150000u
.ends

.subckt adc_array_wafflecap_8_1 sample_n colon_n vcom row_n en_n ctop sample vdd col_n
+ VSS
Xadc_array_circuit_150n_0 vcom sample sample_n col_n colon_n row_n adc_array_circuit_150n_0/cbot
+ en_n vdd VSS adc_array_circuit_150n_1
.ends

.subckt adc_array_matrix VDD VSS vcm ctop sample sample_n sw sw_n col_n[0] col_n[1]
+ col_n[2] col_n[3] col_n[4] col_n[5] col_n[6] col_n[7] col_n[8] col_n[9] col_n[10]
+ col_n[11] col_n[12] col_n[13] col_n[14] col_n[15] col_n[16] col_n[17] col_n[18]
+ col_n[19] col_n[20] col_n[21] col_n[22] col_n[23] col_n[24] col_n[25] col_n[26]
+ col_n[27] col_n[28] col_n[29] col_n[30] col_n[31] en_n_bit[2] en_n_bit[1] en_n_bit[0]
+ row_n[0] row_n[1] row_n[2] row_n[3] row_n[4] row_n[5] row_n[6] row_n[7] row_n[8]
+ row_n[9] row_n[10] row_n[11] row_n[12] row_n[13] row_n[14] row_n[15] rowon_n[0]
+ rowon_n[1] rowon_n[2] rowon_n[3] rowon_n[4] rowon_n[5] rowon_n[6] rowon_n[7] rowon_n[8]
+ rowon_n[9] rowon_n[10] rowon_n[11] rowon_n[12] rowon_n[13] rowon_n[14] rowon_n[15]
+ analog_in en_C0_n
Xadc_array_wafflecap_8_8_0[0|0] adc_array_wafflecap_8_8_0[0|9]/sample_n rowon_n[1]
+ vcm col_n[0] ctop adc_array_wafflecap_8_8_0[0|9]/sample VDD row_n[1] VSS adc_array_wafflecap_8_8
Xadc_array_wafflecap_8_8_0[1|0] adc_array_wafflecap_8_8_0[1|9]/sample_n rowon_n[2]
+ vcm col_n[0] ctop adc_array_wafflecap_8_8_0[1|9]/sample VDD row_n[2] VSS adc_array_wafflecap_8_8
Xadc_array_wafflecap_8_8_0[2|0] adc_array_wafflecap_8_8_0[2|9]/sample_n rowon_n[3]
+ vcm col_n[0] ctop adc_array_wafflecap_8_8_0[2|9]/sample VDD row_n[3] VSS adc_array_wafflecap_8_8
Xadc_array_wafflecap_8_8_0[3|0] adc_array_wafflecap_8_8_0[3|9]/sample_n rowon_n[4]
+ vcm col_n[0] ctop adc_array_wafflecap_8_8_0[3|9]/sample VDD row_n[4] VSS adc_array_wafflecap_8_8
Xadc_array_wafflecap_8_8_0[4|0] adc_array_wafflecap_8_8_0[4|9]/sample_n rowon_n[5]
+ vcm col_n[0] ctop adc_array_wafflecap_8_8_0[4|9]/sample VDD row_n[5] VSS adc_array_wafflecap_8_8
Xadc_array_wafflecap_8_8_0[5|0] adc_array_wafflecap_8_8_0[5|9]/sample_n rowon_n[6]
+ vcm col_n[0] ctop adc_array_wafflecap_8_8_0[5|9]/sample VDD row_n[6] VSS adc_array_wafflecap_8_8
Xadc_array_wafflecap_8_8_0[6|0] adc_array_wafflecap_8_8_0[6|9]/sample_n rowon_n[7]
+ vcm col_n[0] ctop adc_array_wafflecap_8_8_0[6|9]/sample VDD row_n[7] VSS adc_array_wafflecap_8_8
Xadc_array_wafflecap_8_8_0[7|0] adc_array_wafflecap_8_8_0[7|9]/sample_n rowon_n[8]
+ vcm col_n[0] ctop adc_array_wafflecap_8_8_0[7|9]/sample VDD row_n[8] VSS adc_array_wafflecap_8_8
Xadc_array_wafflecap_8_8_0[8|0] adc_array_wafflecap_8_8_0[8|9]/sample_n rowon_n[9]
+ vcm col_n[0] ctop adc_array_wafflecap_8_8_0[8|9]/sample VDD row_n[9] VSS adc_array_wafflecap_8_8
Xadc_array_wafflecap_8_8_0[9|0] adc_array_wafflecap_8_8_0[9|9]/sample_n rowon_n[10]
+ vcm col_n[0] ctop adc_array_wafflecap_8_8_0[9|9]/sample VDD row_n[10] VSS adc_array_wafflecap_8_8
Xadc_array_wafflecap_8_8_0[10|0] adc_array_wafflecap_8_8_0[10|9]/sample_n rowon_n[11]
+ vcm col_n[0] ctop adc_array_wafflecap_8_8_0[10|9]/sample VDD row_n[11] VSS adc_array_wafflecap_8_8
Xadc_array_wafflecap_8_8_0[11|0] adc_array_wafflecap_8_8_0[11|9]/sample_n rowon_n[12]
+ vcm col_n[0] ctop adc_array_wafflecap_8_8_0[11|9]/sample VDD row_n[12] VSS adc_array_wafflecap_8_8
Xadc_array_wafflecap_8_8_0[12|0] adc_array_wafflecap_8_8_0[12|9]/sample_n rowon_n[13]
+ vcm col_n[0] ctop adc_array_wafflecap_8_8_0[12|9]/sample VDD row_n[13] VSS adc_array_wafflecap_8_8
Xadc_array_wafflecap_8_8_0[13|0] adc_array_wafflecap_8_8_0[13|9]/sample_n rowon_n[14]
+ vcm col_n[0] ctop adc_array_wafflecap_8_8_0[13|9]/sample VDD row_n[14] VSS adc_array_wafflecap_8_8
Xadc_array_wafflecap_8_8_0[14|0] adc_array_wafflecap_8_8_0[14|9]/sample_n rowon_n[15]
+ vcm col_n[0] ctop adc_array_wafflecap_8_8_0[14|9]/sample VDD row_n[15] VSS adc_array_wafflecap_8_8
Xadc_array_wafflecap_8_8_0[0|1] adc_array_wafflecap_8_8_0[0|9]/sample_n rowon_n[1]
+ vcm col_n[1] ctop adc_array_wafflecap_8_8_0[0|9]/sample VDD row_n[1] VSS adc_array_wafflecap_8_8
Xadc_array_wafflecap_8_8_0[1|1] adc_array_wafflecap_8_8_0[1|9]/sample_n rowon_n[2]
+ vcm col_n[1] ctop adc_array_wafflecap_8_8_0[1|9]/sample VDD row_n[2] VSS adc_array_wafflecap_8_8
Xadc_array_wafflecap_8_8_0[2|1] adc_array_wafflecap_8_8_0[2|9]/sample_n rowon_n[3]
+ vcm col_n[1] ctop adc_array_wafflecap_8_8_0[2|9]/sample VDD row_n[3] VSS adc_array_wafflecap_8_8
Xadc_array_wafflecap_8_8_0[3|1] adc_array_wafflecap_8_8_0[3|9]/sample_n rowon_n[4]
+ vcm col_n[1] ctop adc_array_wafflecap_8_8_0[3|9]/sample VDD row_n[4] VSS adc_array_wafflecap_8_8
Xadc_array_wafflecap_8_8_0[4|1] adc_array_wafflecap_8_8_0[4|9]/sample_n rowon_n[5]
+ vcm col_n[1] ctop adc_array_wafflecap_8_8_0[4|9]/sample VDD row_n[5] VSS adc_array_wafflecap_8_8
Xadc_array_wafflecap_8_8_0[5|1] adc_array_wafflecap_8_8_0[5|9]/sample_n rowon_n[6]
+ vcm col_n[1] ctop adc_array_wafflecap_8_8_0[5|9]/sample VDD row_n[6] VSS adc_array_wafflecap_8_8
Xadc_array_wafflecap_8_8_0[6|1] adc_array_wafflecap_8_8_0[6|9]/sample_n rowon_n[7]
+ vcm col_n[1] ctop adc_array_wafflecap_8_8_0[6|9]/sample VDD row_n[7] VSS adc_array_wafflecap_8_8
Xadc_array_wafflecap_8_8_0[7|1] adc_array_wafflecap_8_8_0[7|9]/sample_n rowon_n[8]
+ vcm col_n[1] ctop adc_array_wafflecap_8_8_0[7|9]/sample VDD row_n[8] VSS adc_array_wafflecap_8_8
Xadc_array_wafflecap_8_8_0[8|1] adc_array_wafflecap_8_8_0[8|9]/sample_n rowon_n[9]
+ vcm col_n[1] ctop adc_array_wafflecap_8_8_0[8|9]/sample VDD row_n[9] VSS adc_array_wafflecap_8_8
Xadc_array_wafflecap_8_8_0[9|1] adc_array_wafflecap_8_8_0[9|9]/sample_n rowon_n[10]
+ vcm col_n[1] ctop adc_array_wafflecap_8_8_0[9|9]/sample VDD row_n[10] VSS adc_array_wafflecap_8_8
Xadc_array_wafflecap_8_8_0[10|1] adc_array_wafflecap_8_8_0[10|9]/sample_n rowon_n[11]
+ vcm col_n[1] ctop adc_array_wafflecap_8_8_0[10|9]/sample VDD row_n[11] VSS adc_array_wafflecap_8_8
Xadc_array_wafflecap_8_8_0[11|1] adc_array_wafflecap_8_8_0[11|9]/sample_n rowon_n[12]
+ vcm col_n[1] ctop adc_array_wafflecap_8_8_0[11|9]/sample VDD row_n[12] VSS adc_array_wafflecap_8_8
Xadc_array_wafflecap_8_8_0[12|1] adc_array_wafflecap_8_8_0[12|9]/sample_n rowon_n[13]
+ vcm col_n[1] ctop adc_array_wafflecap_8_8_0[12|9]/sample VDD row_n[13] VSS adc_array_wafflecap_8_8
Xadc_array_wafflecap_8_8_0[13|1] adc_array_wafflecap_8_8_0[13|9]/sample_n rowon_n[14]
+ vcm col_n[1] ctop adc_array_wafflecap_8_8_0[13|9]/sample VDD row_n[14] VSS adc_array_wafflecap_8_8
Xadc_array_wafflecap_8_8_0[14|1] adc_array_wafflecap_8_8_0[14|9]/sample_n rowon_n[15]
+ vcm col_n[1] ctop adc_array_wafflecap_8_8_0[14|9]/sample VDD row_n[15] VSS adc_array_wafflecap_8_8
Xadc_array_wafflecap_8_8_0[0|2] adc_array_wafflecap_8_8_0[0|9]/sample_n rowon_n[1]
+ vcm col_n[2] ctop adc_array_wafflecap_8_8_0[0|9]/sample VDD row_n[1] VSS adc_array_wafflecap_8_8
Xadc_array_wafflecap_8_8_0[1|2] adc_array_wafflecap_8_8_0[1|9]/sample_n rowon_n[2]
+ vcm col_n[2] ctop adc_array_wafflecap_8_8_0[1|9]/sample VDD row_n[2] VSS adc_array_wafflecap_8_8
Xadc_array_wafflecap_8_8_0[2|2] adc_array_wafflecap_8_8_0[2|9]/sample_n rowon_n[3]
+ vcm col_n[2] ctop adc_array_wafflecap_8_8_0[2|9]/sample VDD row_n[3] VSS adc_array_wafflecap_8_8
Xadc_array_wafflecap_8_8_0[3|2] adc_array_wafflecap_8_8_0[3|9]/sample_n rowon_n[4]
+ vcm col_n[2] ctop adc_array_wafflecap_8_8_0[3|9]/sample VDD row_n[4] VSS adc_array_wafflecap_8_8
Xadc_array_wafflecap_8_8_0[4|2] adc_array_wafflecap_8_8_0[4|9]/sample_n rowon_n[5]
+ vcm col_n[2] ctop adc_array_wafflecap_8_8_0[4|9]/sample VDD row_n[5] VSS adc_array_wafflecap_8_8
Xadc_array_wafflecap_8_8_0[5|2] adc_array_wafflecap_8_8_0[5|9]/sample_n rowon_n[6]
+ vcm col_n[2] ctop adc_array_wafflecap_8_8_0[5|9]/sample VDD row_n[6] VSS adc_array_wafflecap_8_8
Xadc_array_wafflecap_8_8_0[6|2] adc_array_wafflecap_8_8_0[6|9]/sample_n rowon_n[7]
+ vcm col_n[2] ctop adc_array_wafflecap_8_8_0[6|9]/sample VDD row_n[7] VSS adc_array_wafflecap_8_8
Xadc_array_wafflecap_8_8_0[7|2] adc_array_wafflecap_8_8_0[7|9]/sample_n rowon_n[8]
+ vcm col_n[2] ctop adc_array_wafflecap_8_8_0[7|9]/sample VDD row_n[8] VSS adc_array_wafflecap_8_8
Xadc_array_wafflecap_8_8_0[8|2] adc_array_wafflecap_8_8_0[8|9]/sample_n rowon_n[9]
+ vcm col_n[2] ctop adc_array_wafflecap_8_8_0[8|9]/sample VDD row_n[9] VSS adc_array_wafflecap_8_8
Xadc_array_wafflecap_8_8_0[9|2] adc_array_wafflecap_8_8_0[9|9]/sample_n rowon_n[10]
+ vcm col_n[2] ctop adc_array_wafflecap_8_8_0[9|9]/sample VDD row_n[10] VSS adc_array_wafflecap_8_8
Xadc_array_wafflecap_8_8_0[10|2] adc_array_wafflecap_8_8_0[10|9]/sample_n rowon_n[11]
+ vcm col_n[2] ctop adc_array_wafflecap_8_8_0[10|9]/sample VDD row_n[11] VSS adc_array_wafflecap_8_8
Xadc_array_wafflecap_8_8_0[11|2] adc_array_wafflecap_8_8_0[11|9]/sample_n rowon_n[12]
+ vcm col_n[2] ctop adc_array_wafflecap_8_8_0[11|9]/sample VDD row_n[12] VSS adc_array_wafflecap_8_8
Xadc_array_wafflecap_8_8_0[12|2] adc_array_wafflecap_8_8_0[12|9]/sample_n rowon_n[13]
+ vcm col_n[2] ctop adc_array_wafflecap_8_8_0[12|9]/sample VDD row_n[13] VSS adc_array_wafflecap_8_8
Xadc_array_wafflecap_8_8_0[13|2] adc_array_wafflecap_8_8_0[13|9]/sample_n rowon_n[14]
+ vcm col_n[2] ctop adc_array_wafflecap_8_8_0[13|9]/sample VDD row_n[14] VSS adc_array_wafflecap_8_8
Xadc_array_wafflecap_8_8_0[14|2] adc_array_wafflecap_8_8_0[14|9]/sample_n rowon_n[15]
+ vcm col_n[2] ctop adc_array_wafflecap_8_8_0[14|9]/sample VDD row_n[15] VSS adc_array_wafflecap_8_8
Xadc_array_wafflecap_8_8_0[0|3] adc_array_wafflecap_8_8_0[0|9]/sample_n rowon_n[1]
+ vcm col_n[3] ctop adc_array_wafflecap_8_8_0[0|9]/sample VDD row_n[1] VSS adc_array_wafflecap_8_8
Xadc_array_wafflecap_8_8_0[1|3] adc_array_wafflecap_8_8_0[1|9]/sample_n rowon_n[2]
+ vcm col_n[3] ctop adc_array_wafflecap_8_8_0[1|9]/sample VDD row_n[2] VSS adc_array_wafflecap_8_8
Xadc_array_wafflecap_8_8_0[2|3] adc_array_wafflecap_8_8_0[2|9]/sample_n rowon_n[3]
+ vcm col_n[3] ctop adc_array_wafflecap_8_8_0[2|9]/sample VDD row_n[3] VSS adc_array_wafflecap_8_8
Xadc_array_wafflecap_8_8_0[3|3] adc_array_wafflecap_8_8_0[3|9]/sample_n rowon_n[4]
+ vcm col_n[3] ctop adc_array_wafflecap_8_8_0[3|9]/sample VDD row_n[4] VSS adc_array_wafflecap_8_8
Xadc_array_wafflecap_8_8_0[4|3] adc_array_wafflecap_8_8_0[4|9]/sample_n rowon_n[5]
+ vcm col_n[3] ctop adc_array_wafflecap_8_8_0[4|9]/sample VDD row_n[5] VSS adc_array_wafflecap_8_8
Xadc_array_wafflecap_8_8_0[5|3] adc_array_wafflecap_8_8_0[5|9]/sample_n rowon_n[6]
+ vcm col_n[3] ctop adc_array_wafflecap_8_8_0[5|9]/sample VDD row_n[6] VSS adc_array_wafflecap_8_8
Xadc_array_wafflecap_8_8_0[6|3] adc_array_wafflecap_8_8_0[6|9]/sample_n rowon_n[7]
+ vcm col_n[3] ctop adc_array_wafflecap_8_8_0[6|9]/sample VDD row_n[7] VSS adc_array_wafflecap_8_8
Xadc_array_wafflecap_8_8_0[7|3] adc_array_wafflecap_8_8_0[7|9]/sample_n rowon_n[8]
+ vcm col_n[3] ctop adc_array_wafflecap_8_8_0[7|9]/sample VDD row_n[8] VSS adc_array_wafflecap_8_8
Xadc_array_wafflecap_8_8_0[8|3] adc_array_wafflecap_8_8_0[8|9]/sample_n rowon_n[9]
+ vcm col_n[3] ctop adc_array_wafflecap_8_8_0[8|9]/sample VDD row_n[9] VSS adc_array_wafflecap_8_8
Xadc_array_wafflecap_8_8_0[9|3] adc_array_wafflecap_8_8_0[9|9]/sample_n rowon_n[10]
+ vcm col_n[3] ctop adc_array_wafflecap_8_8_0[9|9]/sample VDD row_n[10] VSS adc_array_wafflecap_8_8
Xadc_array_wafflecap_8_8_0[10|3] adc_array_wafflecap_8_8_0[10|9]/sample_n rowon_n[11]
+ vcm col_n[3] ctop adc_array_wafflecap_8_8_0[10|9]/sample VDD row_n[11] VSS adc_array_wafflecap_8_8
Xadc_array_wafflecap_8_8_0[11|3] adc_array_wafflecap_8_8_0[11|9]/sample_n rowon_n[12]
+ vcm col_n[3] ctop adc_array_wafflecap_8_8_0[11|9]/sample VDD row_n[12] VSS adc_array_wafflecap_8_8
Xadc_array_wafflecap_8_8_0[12|3] adc_array_wafflecap_8_8_0[12|9]/sample_n rowon_n[13]
+ vcm col_n[3] ctop adc_array_wafflecap_8_8_0[12|9]/sample VDD row_n[13] VSS adc_array_wafflecap_8_8
Xadc_array_wafflecap_8_8_0[13|3] adc_array_wafflecap_8_8_0[13|9]/sample_n rowon_n[14]
+ vcm col_n[3] ctop adc_array_wafflecap_8_8_0[13|9]/sample VDD row_n[14] VSS adc_array_wafflecap_8_8
Xadc_array_wafflecap_8_8_0[14|3] adc_array_wafflecap_8_8_0[14|9]/sample_n rowon_n[15]
+ vcm col_n[3] ctop adc_array_wafflecap_8_8_0[14|9]/sample VDD row_n[15] VSS adc_array_wafflecap_8_8
Xadc_array_wafflecap_8_8_0[0|4] adc_array_wafflecap_8_8_0[0|9]/sample_n rowon_n[1]
+ vcm col_n[4] ctop adc_array_wafflecap_8_8_0[0|9]/sample VDD row_n[1] VSS adc_array_wafflecap_8_8
Xadc_array_wafflecap_8_8_0[1|4] adc_array_wafflecap_8_8_0[1|9]/sample_n rowon_n[2]
+ vcm col_n[4] ctop adc_array_wafflecap_8_8_0[1|9]/sample VDD row_n[2] VSS adc_array_wafflecap_8_8
Xadc_array_wafflecap_8_8_0[2|4] adc_array_wafflecap_8_8_0[2|9]/sample_n rowon_n[3]
+ vcm col_n[4] ctop adc_array_wafflecap_8_8_0[2|9]/sample VDD row_n[3] VSS adc_array_wafflecap_8_8
Xadc_array_wafflecap_8_8_0[3|4] adc_array_wafflecap_8_8_0[3|9]/sample_n rowon_n[4]
+ vcm col_n[4] ctop adc_array_wafflecap_8_8_0[3|9]/sample VDD row_n[4] VSS adc_array_wafflecap_8_8
Xadc_array_wafflecap_8_8_0[4|4] adc_array_wafflecap_8_8_0[4|9]/sample_n rowon_n[5]
+ vcm col_n[4] ctop adc_array_wafflecap_8_8_0[4|9]/sample VDD row_n[5] VSS adc_array_wafflecap_8_8
Xadc_array_wafflecap_8_8_0[5|4] adc_array_wafflecap_8_8_0[5|9]/sample_n rowon_n[6]
+ vcm col_n[4] ctop adc_array_wafflecap_8_8_0[5|9]/sample VDD row_n[6] VSS adc_array_wafflecap_8_8
Xadc_array_wafflecap_8_8_0[6|4] adc_array_wafflecap_8_8_0[6|9]/sample_n rowon_n[7]
+ vcm col_n[4] ctop adc_array_wafflecap_8_8_0[6|9]/sample VDD row_n[7] VSS adc_array_wafflecap_8_8
Xadc_array_wafflecap_8_8_0[7|4] adc_array_wafflecap_8_8_0[7|9]/sample_n rowon_n[8]
+ vcm col_n[4] ctop adc_array_wafflecap_8_8_0[7|9]/sample VDD row_n[8] VSS adc_array_wafflecap_8_8
Xadc_array_wafflecap_8_8_0[8|4] adc_array_wafflecap_8_8_0[8|9]/sample_n rowon_n[9]
+ vcm col_n[4] ctop adc_array_wafflecap_8_8_0[8|9]/sample VDD row_n[9] VSS adc_array_wafflecap_8_8
Xadc_array_wafflecap_8_8_0[9|4] adc_array_wafflecap_8_8_0[9|9]/sample_n rowon_n[10]
+ vcm col_n[4] ctop adc_array_wafflecap_8_8_0[9|9]/sample VDD row_n[10] VSS adc_array_wafflecap_8_8
Xadc_array_wafflecap_8_8_0[10|4] adc_array_wafflecap_8_8_0[10|9]/sample_n rowon_n[11]
+ vcm col_n[4] ctop adc_array_wafflecap_8_8_0[10|9]/sample VDD row_n[11] VSS adc_array_wafflecap_8_8
Xadc_array_wafflecap_8_8_0[11|4] adc_array_wafflecap_8_8_0[11|9]/sample_n rowon_n[12]
+ vcm col_n[4] ctop adc_array_wafflecap_8_8_0[11|9]/sample VDD row_n[12] VSS adc_array_wafflecap_8_8
Xadc_array_wafflecap_8_8_0[12|4] adc_array_wafflecap_8_8_0[12|9]/sample_n rowon_n[13]
+ vcm col_n[4] ctop adc_array_wafflecap_8_8_0[12|9]/sample VDD row_n[13] VSS adc_array_wafflecap_8_8
Xadc_array_wafflecap_8_8_0[13|4] adc_array_wafflecap_8_8_0[13|9]/sample_n rowon_n[14]
+ vcm col_n[4] ctop adc_array_wafflecap_8_8_0[13|9]/sample VDD row_n[14] VSS adc_array_wafflecap_8_8
Xadc_array_wafflecap_8_8_0[14|4] adc_array_wafflecap_8_8_0[14|9]/sample_n rowon_n[15]
+ vcm col_n[4] ctop adc_array_wafflecap_8_8_0[14|9]/sample VDD row_n[15] VSS adc_array_wafflecap_8_8
Xadc_array_wafflecap_8_8_0[0|5] adc_array_wafflecap_8_8_0[0|9]/sample_n rowon_n[1]
+ vcm col_n[5] ctop adc_array_wafflecap_8_8_0[0|9]/sample VDD row_n[1] VSS adc_array_wafflecap_8_8
Xadc_array_wafflecap_8_8_0[1|5] adc_array_wafflecap_8_8_0[1|9]/sample_n rowon_n[2]
+ vcm col_n[5] ctop adc_array_wafflecap_8_8_0[1|9]/sample VDD row_n[2] VSS adc_array_wafflecap_8_8
Xadc_array_wafflecap_8_8_0[2|5] adc_array_wafflecap_8_8_0[2|9]/sample_n rowon_n[3]
+ vcm col_n[5] ctop adc_array_wafflecap_8_8_0[2|9]/sample VDD row_n[3] VSS adc_array_wafflecap_8_8
Xadc_array_wafflecap_8_8_0[3|5] adc_array_wafflecap_8_8_0[3|9]/sample_n rowon_n[4]
+ vcm col_n[5] ctop adc_array_wafflecap_8_8_0[3|9]/sample VDD row_n[4] VSS adc_array_wafflecap_8_8
Xadc_array_wafflecap_8_8_0[4|5] adc_array_wafflecap_8_8_0[4|9]/sample_n rowon_n[5]
+ vcm col_n[5] ctop adc_array_wafflecap_8_8_0[4|9]/sample VDD row_n[5] VSS adc_array_wafflecap_8_8
Xadc_array_wafflecap_8_8_0[5|5] adc_array_wafflecap_8_8_0[5|9]/sample_n rowon_n[6]
+ vcm col_n[5] ctop adc_array_wafflecap_8_8_0[5|9]/sample VDD row_n[6] VSS adc_array_wafflecap_8_8
Xadc_array_wafflecap_8_8_0[6|5] adc_array_wafflecap_8_8_0[6|9]/sample_n rowon_n[7]
+ vcm col_n[5] ctop adc_array_wafflecap_8_8_0[6|9]/sample VDD row_n[7] VSS adc_array_wafflecap_8_8
Xadc_array_wafflecap_8_8_0[7|5] adc_array_wafflecap_8_8_0[7|9]/sample_n rowon_n[8]
+ vcm col_n[5] ctop adc_array_wafflecap_8_8_0[7|9]/sample VDD row_n[8] VSS adc_array_wafflecap_8_8
Xadc_array_wafflecap_8_8_0[8|5] adc_array_wafflecap_8_8_0[8|9]/sample_n rowon_n[9]
+ vcm col_n[5] ctop adc_array_wafflecap_8_8_0[8|9]/sample VDD row_n[9] VSS adc_array_wafflecap_8_8
Xadc_array_wafflecap_8_8_0[9|5] adc_array_wafflecap_8_8_0[9|9]/sample_n rowon_n[10]
+ vcm col_n[5] ctop adc_array_wafflecap_8_8_0[9|9]/sample VDD row_n[10] VSS adc_array_wafflecap_8_8
Xadc_array_wafflecap_8_8_0[10|5] adc_array_wafflecap_8_8_0[10|9]/sample_n rowon_n[11]
+ vcm col_n[5] ctop adc_array_wafflecap_8_8_0[10|9]/sample VDD row_n[11] VSS adc_array_wafflecap_8_8
Xadc_array_wafflecap_8_8_0[11|5] adc_array_wafflecap_8_8_0[11|9]/sample_n rowon_n[12]
+ vcm col_n[5] ctop adc_array_wafflecap_8_8_0[11|9]/sample VDD row_n[12] VSS adc_array_wafflecap_8_8
Xadc_array_wafflecap_8_8_0[12|5] adc_array_wafflecap_8_8_0[12|9]/sample_n rowon_n[13]
+ vcm col_n[5] ctop adc_array_wafflecap_8_8_0[12|9]/sample VDD row_n[13] VSS adc_array_wafflecap_8_8
Xadc_array_wafflecap_8_8_0[13|5] adc_array_wafflecap_8_8_0[13|9]/sample_n rowon_n[14]
+ vcm col_n[5] ctop adc_array_wafflecap_8_8_0[13|9]/sample VDD row_n[14] VSS adc_array_wafflecap_8_8
Xadc_array_wafflecap_8_8_0[14|5] adc_array_wafflecap_8_8_0[14|9]/sample_n rowon_n[15]
+ vcm col_n[5] ctop adc_array_wafflecap_8_8_0[14|9]/sample VDD row_n[15] VSS adc_array_wafflecap_8_8
Xadc_array_wafflecap_8_8_0[0|6] adc_array_wafflecap_8_8_0[0|9]/sample_n rowon_n[1]
+ vcm col_n[6] ctop adc_array_wafflecap_8_8_0[0|9]/sample VDD row_n[1] VSS adc_array_wafflecap_8_8
Xadc_array_wafflecap_8_8_0[1|6] adc_array_wafflecap_8_8_0[1|9]/sample_n rowon_n[2]
+ vcm col_n[6] ctop adc_array_wafflecap_8_8_0[1|9]/sample VDD row_n[2] VSS adc_array_wafflecap_8_8
Xadc_array_wafflecap_8_8_0[2|6] adc_array_wafflecap_8_8_0[2|9]/sample_n rowon_n[3]
+ vcm col_n[6] ctop adc_array_wafflecap_8_8_0[2|9]/sample VDD row_n[3] VSS adc_array_wafflecap_8_8
Xadc_array_wafflecap_8_8_0[3|6] adc_array_wafflecap_8_8_0[3|9]/sample_n rowon_n[4]
+ vcm col_n[6] ctop adc_array_wafflecap_8_8_0[3|9]/sample VDD row_n[4] VSS adc_array_wafflecap_8_8
Xadc_array_wafflecap_8_8_0[4|6] adc_array_wafflecap_8_8_0[4|9]/sample_n rowon_n[5]
+ vcm col_n[6] ctop adc_array_wafflecap_8_8_0[4|9]/sample VDD row_n[5] VSS adc_array_wafflecap_8_8
Xadc_array_wafflecap_8_8_0[5|6] adc_array_wafflecap_8_8_0[5|9]/sample_n rowon_n[6]
+ vcm col_n[6] ctop adc_array_wafflecap_8_8_0[5|9]/sample VDD row_n[6] VSS adc_array_wafflecap_8_8
Xadc_array_wafflecap_8_8_0[6|6] adc_array_wafflecap_8_8_0[6|9]/sample_n rowon_n[7]
+ vcm col_n[6] ctop adc_array_wafflecap_8_8_0[6|9]/sample VDD row_n[7] VSS adc_array_wafflecap_8_8
Xadc_array_wafflecap_8_8_0[7|6] adc_array_wafflecap_8_8_0[7|9]/sample_n rowon_n[8]
+ vcm col_n[6] ctop adc_array_wafflecap_8_8_0[7|9]/sample VDD row_n[8] VSS adc_array_wafflecap_8_8
Xadc_array_wafflecap_8_8_0[8|6] adc_array_wafflecap_8_8_0[8|9]/sample_n rowon_n[9]
+ vcm col_n[6] ctop adc_array_wafflecap_8_8_0[8|9]/sample VDD row_n[9] VSS adc_array_wafflecap_8_8
Xadc_array_wafflecap_8_8_0[9|6] adc_array_wafflecap_8_8_0[9|9]/sample_n rowon_n[10]
+ vcm col_n[6] ctop adc_array_wafflecap_8_8_0[9|9]/sample VDD row_n[10] VSS adc_array_wafflecap_8_8
Xadc_array_wafflecap_8_8_0[10|6] adc_array_wafflecap_8_8_0[10|9]/sample_n rowon_n[11]
+ vcm col_n[6] ctop adc_array_wafflecap_8_8_0[10|9]/sample VDD row_n[11] VSS adc_array_wafflecap_8_8
Xadc_array_wafflecap_8_8_0[11|6] adc_array_wafflecap_8_8_0[11|9]/sample_n rowon_n[12]
+ vcm col_n[6] ctop adc_array_wafflecap_8_8_0[11|9]/sample VDD row_n[12] VSS adc_array_wafflecap_8_8
Xadc_array_wafflecap_8_8_0[12|6] adc_array_wafflecap_8_8_0[12|9]/sample_n rowon_n[13]
+ vcm col_n[6] ctop adc_array_wafflecap_8_8_0[12|9]/sample VDD row_n[13] VSS adc_array_wafflecap_8_8
Xadc_array_wafflecap_8_8_0[13|6] adc_array_wafflecap_8_8_0[13|9]/sample_n rowon_n[14]
+ vcm col_n[6] ctop adc_array_wafflecap_8_8_0[13|9]/sample VDD row_n[14] VSS adc_array_wafflecap_8_8
Xadc_array_wafflecap_8_8_0[14|6] adc_array_wafflecap_8_8_0[14|9]/sample_n rowon_n[15]
+ vcm col_n[6] ctop adc_array_wafflecap_8_8_0[14|9]/sample VDD row_n[15] VSS adc_array_wafflecap_8_8
Xadc_array_wafflecap_8_8_0[0|7] adc_array_wafflecap_8_8_0[0|9]/sample_n rowon_n[1]
+ vcm col_n[7] ctop adc_array_wafflecap_8_8_0[0|9]/sample VDD row_n[1] VSS adc_array_wafflecap_8_8
Xadc_array_wafflecap_8_8_0[1|7] adc_array_wafflecap_8_8_0[1|9]/sample_n rowon_n[2]
+ vcm col_n[7] ctop adc_array_wafflecap_8_8_0[1|9]/sample VDD row_n[2] VSS adc_array_wafflecap_8_8
Xadc_array_wafflecap_8_8_0[2|7] adc_array_wafflecap_8_8_0[2|9]/sample_n rowon_n[3]
+ vcm col_n[7] ctop adc_array_wafflecap_8_8_0[2|9]/sample VDD row_n[3] VSS adc_array_wafflecap_8_8