*SPEF "ieee 1481-1999"
*DESIGN "adc_core_digital"
*DATE "11:11:11 Fri 11 11, 1111"
*VENDOR "OpenRCX"
*PROGRAM "Parallel Extraction"
*VERSION "1.0"
*DESIGN_FLOW "NAME_SCOPE LOCAL" "PIN_CAP NONE"
*DIVIDER /
*DELIMITER :
*BUS_DELIMITER []
*T_UNIT 1 NS
*C_UNIT 1 PF
*R_UNIT 1 OHM
*L_UNIT 1 HENRY

*NAME_MAP
*3 clk_dig_in
*4 comparator_in
*5 config_1_in[0]
*6 config_1_in[10]
*7 config_1_in[11]
*8 config_1_in[12]
*9 config_1_in[13]
*10 config_1_in[14]
*11 config_1_in[15]
*12 config_1_in[1]
*13 config_1_in[2]
*14 config_1_in[3]
*15 config_1_in[4]
*16 config_1_in[5]
*17 config_1_in[6]
*18 config_1_in[7]
*19 config_1_in[8]
*20 config_1_in[9]
*21 config_2_in[0]
*22 config_2_in[10]
*23 config_2_in[11]
*24 config_2_in[12]
*25 config_2_in[13]
*26 config_2_in[14]
*27 config_2_in[15]
*28 config_2_in[1]
*29 config_2_in[2]
*30 config_2_in[3]
*31 config_2_in[4]
*32 config_2_in[5]
*33 config_2_in[6]
*34 config_2_in[7]
*35 config_2_in[8]
*36 config_2_in[9]
*37 conv_finished_out
*38 enable_loop_out
*39 nmatrix_bincap_out_n[0]
*40 nmatrix_bincap_out_n[1]
*41 nmatrix_bincap_out_n[2]
*42 net193
*43 nmatrix_col_out_n[0]
*44 nmatrix_col_out_n[10]
*45 nmatrix_col_out_n[11]
*46 nmatrix_col_out_n[12]
*47 nmatrix_col_out_n[13]
*48 nmatrix_col_out_n[14]
*49 nmatrix_col_out_n[15]
*50 nmatrix_col_out_n[16]
*51 nmatrix_col_out_n[17]
*52 nmatrix_col_out_n[18]
*53 nmatrix_col_out_n[19]
*54 nmatrix_col_out_n[1]
*55 nmatrix_col_out_n[20]
*56 nmatrix_col_out_n[21]
*57 nmatrix_col_out_n[22]
*58 nmatrix_col_out_n[23]
*59 nmatrix_col_out_n[24]
*60 nmatrix_col_out_n[25]
*61 nmatrix_col_out_n[26]
*62 nmatrix_col_out_n[27]
*63 nmatrix_col_out_n[28]
*64 nmatrix_col_out_n[29]
*65 nmatrix_col_out_n[2]
*66 nmatrix_col_out_n[30]
*67 nmatrix_col_out_n[31]
*68 nmatrix_col_out_n[3]
*69 nmatrix_col_out_n[4]
*70 nmatrix_col_out_n[5]
*71 nmatrix_col_out_n[6]
*72 nmatrix_col_out_n[7]
*73 nmatrix_col_out_n[8]
*74 nmatrix_col_out_n[9]
*75 net194
*76 nmatrix_row_out_n[10]
*77 nmatrix_row_out_n[11]
*78 nmatrix_row_out_n[12]
*79 nmatrix_row_out_n[13]
*80 nmatrix_row_out_n[14]
*81 nmatrix_row_out_n[15]
*82 nmatrix_row_out_n[1]
*83 nmatrix_row_out_n[2]
*84 nmatrix_row_out_n[3]
*85 nmatrix_row_out_n[4]
*86 nmatrix_row_out_n[5]
*87 nmatrix_row_out_n[6]
*88 nmatrix_row_out_n[7]
*89 nmatrix_row_out_n[8]
*90 nmatrix_row_out_n[9]
*91 nmatrix_rowon_out_n[0]
*92 nmatrix_rowon_out_n[10]
*93 nmatrix_rowon_out_n[11]
*94 nmatrix_rowon_out_n[12]
*95 nmatrix_rowon_out_n[13]
*96 nmatrix_rowon_out_n[14]
*97 net196
*98 nmatrix_rowon_out_n[1]
*99 nmatrix_rowon_out_n[2]
*100 nmatrix_rowon_out_n[3]
*101 nmatrix_rowon_out_n[4]
*102 nmatrix_rowon_out_n[5]
*103 nmatrix_rowon_out_n[6]
*104 nmatrix_rowon_out_n[7]
*105 nmatrix_rowon_out_n[8]
*106 nmatrix_rowon_out_n[9]
*107 pmatrix_bincap_out_n[0]
*108 pmatrix_bincap_out_n[1]
*109 pmatrix_bincap_out_n[2]
*110 net197
*111 pmatrix_col_out_n[0]
*112 pmatrix_col_out_n[10]
*113 pmatrix_col_out_n[11]
*114 pmatrix_col_out_n[12]
*115 pmatrix_col_out_n[13]
*116 pmatrix_col_out_n[14]
*117 pmatrix_col_out_n[15]
*118 pmatrix_col_out_n[16]
*119 pmatrix_col_out_n[17]
*120 pmatrix_col_out_n[18]
*121 pmatrix_col_out_n[19]
*122 pmatrix_col_out_n[1]
*123 pmatrix_col_out_n[20]
*124 pmatrix_col_out_n[21]
*125 pmatrix_col_out_n[22]
*126 pmatrix_col_out_n[23]
*127 pmatrix_col_out_n[24]
*128 pmatrix_col_out_n[25]
*129 pmatrix_col_out_n[26]
*130 pmatrix_col_out_n[27]
*131 pmatrix_col_out_n[28]
*132 pmatrix_col_out_n[29]
*133 pmatrix_col_out_n[2]
*134 pmatrix_col_out_n[30]
*135 pmatrix_col_out_n[31]
*136 pmatrix_col_out_n[3]
*137 pmatrix_col_out_n[4]
*138 pmatrix_col_out_n[5]
*139 pmatrix_col_out_n[6]
*140 pmatrix_col_out_n[7]
*141 pmatrix_col_out_n[8]
*142 pmatrix_col_out_n[9]
*143 net195
*144 pmatrix_row_out_n[10]
*145 pmatrix_row_out_n[11]
*146 pmatrix_row_out_n[12]
*147 pmatrix_row_out_n[13]
*148 pmatrix_row_out_n[14]
*149 pmatrix_row_out_n[15]
*150 pmatrix_row_out_n[1]
*151 pmatrix_row_out_n[2]
*152 pmatrix_row_out_n[3]
*153 pmatrix_row_out_n[4]
*154 pmatrix_row_out_n[5]
*155 pmatrix_row_out_n[6]
*156 pmatrix_row_out_n[7]
*157 pmatrix_row_out_n[8]
*158 pmatrix_row_out_n[9]
*159 pmatrix_rowon_out_n[0]
*160 pmatrix_rowon_out_n[10]
*161 pmatrix_rowon_out_n[11]
*162 pmatrix_rowon_out_n[12]
*163 pmatrix_rowon_out_n[13]
*164 pmatrix_rowon_out_n[14]
*165 net198
*166 pmatrix_rowon_out_n[1]
*167 pmatrix_rowon_out_n[2]
*168 pmatrix_rowon_out_n[3]
*169 pmatrix_rowon_out_n[4]
*170 pmatrix_rowon_out_n[5]
*171 pmatrix_rowon_out_n[6]
*172 pmatrix_rowon_out_n[7]
*173 pmatrix_rowon_out_n[8]
*174 pmatrix_rowon_out_n[9]
*175 result_out[0]
*176 result_out[10]
*177 result_out[11]
*178 result_out[12]
*179 result_out[13]
*180 result_out[14]
*181 result_out[15]
*182 result_out[1]
*183 result_out[2]
*184 result_out[3]
*185 result_out[4]
*186 result_out[5]
*187 result_out[6]
*188 result_out[7]
*189 result_out[8]
*190 result_out[9]
*191 rst_n
*192 sample_matrix_out
*193 sample_matrix_out_n
*194 sample_switch_out
*195 sample_switch_out_n
*198 _0000_
*199 _0001_
*200 _0002_
*201 _0003_
*202 _0004_
*203 _0005_
*204 _0006_
*205 _0007_
*206 _0008_
*207 _0009_
*208 _0010_
*209 _0011_
*210 _0012_
*211 _0013_
*212 _0014_
*213 _0015_
*214 _0016_
*215 _0017_
*216 _0018_
*217 _0019_
*218 _0020_
*219 _0021_
*220 _0022_
*221 _0023_
*222 _0024_
*223 _0025_
*224 _0026_
*225 _0027_
*226 _0028_
*227 _0029_
*228 _0030_
*229 _0031_
*230 _0032_
*231 _0033_
*232 _0034_
*233 _0035_
*234 _0036_
*235 _0037_
*236 _0038_
*237 _0039_
*238 _0040_
*239 _0041_
*240 _0042_
*241 _0043_
*242 _0044_
*243 _0045_
*244 _0046_
*245 _0047_
*246 _0048_
*247 _0049_
*248 _0050_
*249 _0051_
*250 _0052_
*251 _0053_
*252 _0054_
*253 _0055_
*254 _0056_
*255 _0057_
*256 _0058_
*257 _0059_
*258 _0060_
*259 _0061_
*260 _0062_
*261 _0063_
*262 _0064_
*263 _0065_
*264 _0066_
*265 _0067_
*266 _0068_
*267 _0069_
*268 _0070_
*269 _0071_
*270 _0072_
*271 _0073_
*272 _0074_
*273 _0075_
*274 _0076_
*275 _0077_
*276 _0078_
*277 _0079_
*278 _0080_
*279 _0081_
*280 _0082_
*281 _0083_
*282 _0084_
*283 _0085_
*284 _0086_
*285 _0087_
*286 _0088_
*287 _0089_
*288 _0090_
*289 _0091_
*290 _0092_
*291 _0093_
*292 _0094_
*293 _0095_
*294 _0096_
*295 _0097_
*296 _0098_
*297 _0099_
*298 _0100_
*299 _0101_
*300 _0102_
*301 _0103_
*302 _0104_
*303 _0105_
*304 _0106_
*305 _0107_
*306 _0108_
*307 _0109_
*308 _0110_
*309 _0111_
*310 _0112_
*311 _0113_
*312 _0114_
*313 _0115_
*314 _0116_
*315 _0117_
*316 _0118_
*317 _0119_
*318 _0120_
*319 _0121_
*320 _0122_
*321 _0123_
*322 _0124_
*323 _0125_
*324 _0126_
*325 _0127_
*326 _0128_
*327 _0129_
*328 _0130_
*329 _0131_
*330 _0132_
*331 _0133_
*332 _0134_
*333 _0135_
*334 _0136_
*335 _0137_
*336 _0138_
*337 _0139_
*338 _0140_
*339 _0141_
*340 _0142_
*341 _0143_
*342 _0144_
*343 _0145_
*344 _0146_
*345 _0147_
*346 _0148_
*347 _0149_
*348 _0150_
*349 _0151_
*350 _0152_
*351 _0153_
*352 _0154_
*353 _0155_
*354 _0156_
*355 _0157_
*356 _0158_
*357 _0159_
*358 _0160_
*359 _0161_
*360 _0162_
*361 _0163_
*362 _0164_
*363 _0165_
*364 _0166_
*365 _0167_
*366 _0168_
*367 _0169_
*368 _0170_
*369 _0171_
*370 _0172_
*371 _0173_
*372 _0174_
*373 _0175_
*374 _0176_
*375 _0177_
*376 _0178_
*377 _0179_
*378 _0180_
*379 _0181_
*380 _0182_
*381 _0183_
*382 _0184_
*383 _0185_
*384 _0186_
*385 _0187_
*386 _0188_
*387 _0189_
*388 _0190_
*389 _0191_
*390 _0192_
*391 _0193_
*392 _0194_
*393 _0195_
*394 _0196_
*395 _0197_
*396 _0198_
*397 _0199_
*398 _0200_
*399 _0201_
*400 _0202_
*401 _0203_
*402 _0204_
*403 _0205_
*404 _0206_
*405 _0207_
*406 _0208_
*407 _0209_
*408 _0210_
*409 _0211_
*410 _0212_
*411 _0213_
*412 _0214_
*413 _0215_
*414 _0216_
*415 _0217_
*416 _0218_
*417 _0219_
*418 _0220_
*419 _0221_
*420 _0222_
*421 _0223_
*422 _0224_
*423 _0225_
*424 _0226_
*425 _0227_
*426 _0228_
*427 _0229_
*428 _0230_
*429 _0231_
*430 _0232_
*431 _0233_
*432 _0234_
*433 _0235_
*434 _0236_
*435 _0237_
*436 _0238_
*437 _0239_
*438 _0240_
*439 _0241_
*440 _0242_
*441 _0243_
*442 _0244_
*443 _0245_
*444 _0246_
*445 _0247_
*446 _0248_
*447 _0249_
*448 _0250_
*449 _0251_
*450 _0252_
*451 _0253_
*452 _0254_
*453 _0255_
*454 _0256_
*455 _0257_
*456 _0258_
*457 _0259_
*458 _0260_
*459 _0261_
*460 _0262_
*461 _0263_
*462 _0264_
*463 _0265_
*464 _0266_
*465 _0267_
*466 _0268_
*467 _0269_
*468 _0270_
*469 _0271_
*470 _0272_
*471 _0273_
*472 _0274_
*473 _0275_
*474 _0276_
*475 _0277_
*476 _0278_
*477 _0279_
*478 _0280_
*479 _0281_
*480 _0282_
*481 _0283_
*482 _0284_
*483 _0285_
*484 _0286_
*485 _0287_
*486 _0288_
*487 _0289_
*488 _0290_
*489 _0291_
*490 _0292_
*491 _0293_
*492 _0294_
*493 _0295_
*494 _0296_
*495 _0297_
*496 _0298_
*497 _0299_
*498 _0300_
*499 _0301_
*500 _0302_
*501 _0303_
*502 _0304_
*503 _0305_
*504 _0306_
*505 _0307_
*506 _0308_
*507 _0309_
*508 _0310_
*509 _0311_
*510 _0312_
*511 _0313_
*512 _0314_
*513 _0315_
*514 _0316_
*515 _0317_
*516 _0318_
*517 _0319_
*518 _0320_
*519 _0321_
*520 _0322_
*521 _0323_
*522 _0324_
*523 _0325_
*524 _0326_
*525 _0327_
*526 _0328_
*527 _0329_
*528 _0330_
*529 _0331_
*530 _0332_
*531 _0333_
*532 _0334_
*533 _0335_
*534 _0336_
*535 _0337_
*536 _0338_
*537 _0339_
*538 _0340_
*539 _0341_
*540 _0342_
*541 _0343_
*542 _0344_
*543 _0345_
*544 _0346_
*545 _0347_
*546 _0348_
*547 _0349_
*548 _0350_
*549 _0351_
*550 _0352_
*551 _0353_
*552 _0354_
*553 _0355_
*554 _0356_
*555 _0357_
*556 _0358_
*557 _0359_
*558 _0360_
*559 _0361_
*560 _0362_
*561 _0363_
*562 _0364_
*563 _0365_
*564 _0366_
*565 _0367_
*566 _0368_
*567 _0369_
*568 _0370_
*569 _0371_
*570 _0372_
*571 _0373_
*572 _0374_
*573 _0375_
*574 _0376_
*575 _0377_
*576 _0378_
*577 _0379_
*578 _0380_
*579 _0381_
*580 _0382_
*581 _0383_
*582 _0384_
*583 _0385_
*584 _0386_
*585 _0387_
*586 _0388_
*587 _0389_
*588 _0390_
*589 _0391_
*590 _0392_
*591 _0393_
*592 _0394_
*593 _0395_
*594 _0396_
*595 _0397_
*596 _0398_
*597 _0399_
*598 _0400_
*599 _0401_
*600 _0402_
*601 _0403_
*602 _0404_
*603 _0405_
*604 _0406_
*605 _0407_
*606 _0408_
*607 _0409_
*608 _0410_
*609 _0411_
*610 _0412_
*611 _0413_
*612 _0414_
*613 _0415_
*614 _0416_
*615 _0417_
*616 _0418_
*617 _0419_
*618 _0420_
*619 _0421_
*620 _0422_
*621 _0423_
*622 _0424_
*623 _0425_
*624 _0426_
*625 _0427_
*626 _0428_
*627 _0429_
*628 _0430_
*629 _0431_
*630 _0432_
*631 _0433_
*632 _0434_
*633 _0435_
*634 _0436_
*635 _0437_
*636 _0438_
*637 _0439_
*638 _0440_
*639 _0441_
*640 _0442_
*641 _0443_
*642 _0444_
*643 _0445_
*644 _0446_
*645 _0447_
*646 _0448_
*647 _0449_
*648 _0450_
*649 _0451_
*650 _0452_
*651 _0453_
*652 _0454_
*653 _0455_
*654 _0456_
*655 _0457_
*656 _0458_
*657 _0459_
*658 _0460_
*659 _0461_
*660 _0462_
*661 _0463_
*662 _0464_
*663 _0465_
*664 _0466_
*665 _0467_
*666 _0468_
*667 _0469_
*668 _0470_
*669 _0471_
*670 _0472_
*671 _0473_
*672 _0474_
*673 _0475_
*674 _0476_
*675 _0477_
*676 _0478_
*677 _0479_
*678 _0480_
*679 _0481_
*680 _0482_
*681 _0483_
*682 _0484_
*683 _0485_
*684 _0486_
*685 _0487_
*686 _0488_
*687 _0489_
*688 _0490_
*689 _0491_
*690 _0492_
*691 _0493_
*692 _0494_
*693 _0495_
*694 _0496_
*695 _0497_
*696 _0498_
*697 _0499_
*698 _0500_
*699 _0501_
*700 _0502_
*701 _0503_
*702 _0504_
*703 _0505_
*704 _0506_
*705 _0507_
*706 _0508_
*707 _0509_
*708 _0510_
*709 _0511_
*710 _0512_
*711 _0513_
*712 _0514_
*713 _0515_
*714 _0516_
*715 _0517_
*716 _0518_
*717 _0519_
*718 _0520_
*719 _0521_
*720 _0522_
*721 _0523_
*722 _0524_
*723 _0525_
*724 _0526_
*725 _0527_
*726 _0528_
*727 _0529_
*728 _0530_
*729 _0531_
*730 _0532_
*731 _0533_
*732 _0534_
*733 _0535_
*734 _0536_
*735 _0537_
*736 _0538_
*737 _0539_
*738 _0540_
*739 _0541_
*740 _0542_
*741 _0543_
*742 _0544_
*743 _0545_
*744 _0546_
*745 _0547_
*746 _0548_
*747 _0549_
*748 _0550_
*749 _0551_
*750 _0552_
*751 _0553_
*752 _0554_
*753 _0555_
*754 _0556_
*755 _0557_
*756 _0558_
*757 _0559_
*758 _0560_
*759 _0561_
*760 _0562_
*761 _0563_
*762 _0564_
*763 _0565_
*764 _0566_
*765 _0567_
*766 _0568_
*767 _0569_
*768 _0570_
*769 _0571_
*770 _0572_
*771 _0573_
*772 _0574_
*773 _0575_
*774 _0576_
*775 _0577_
*776 _0578_
*777 _0579_
*778 _0580_
*779 _0581_
*780 _0582_
*781 _0583_
*782 _0584_
*783 _0585_
*784 _0586_
*785 _0587_
*786 _0588_
*787 _0589_
*788 _0590_
*789 _0591_
*790 _0592_
*791 _0593_
*792 _0594_
*793 _0595_
*794 _0596_
*795 _0597_
*796 _0598_
*797 _0599_
*798 _0600_
*799 _0601_
*800 _0602_
*801 _0603_
*802 _0604_
*803 _0605_
*804 _0606_
*805 _0607_
*806 _0608_
*807 _0609_
*808 _0610_
*809 _0611_
*810 _0612_
*811 _0613_
*812 _0614_
*813 _0615_
*814 _0616_
*815 _0617_
*816 _0618_
*817 _0619_
*818 _0620_
*819 _0621_
*820 _0622_
*821 _0623_
*822 _0624_
*823 _0625_
*824 _0626_
*825 _0627_
*826 _0628_
*827 _0629_
*828 _0630_
*829 _0631_
*830 _0632_
*831 _0633_
*832 _0634_
*833 _0635_
*834 _0636_
*835 _0637_
*836 _0638_
*837 _0639_
*838 _0640_
*839 _0641_
*840 _0642_
*841 _0643_
*842 _0644_
*843 _0645_
*844 _0646_
*845 _0647_
*846 _0648_
*847 _0649_
*848 _0650_
*849 _0651_
*850 _0652_
*851 _0653_
*852 _0654_
*853 _0655_
*854 _0656_
*855 _0657_
*856 _0658_
*857 _0659_
*858 _0660_
*859 _0661_
*860 _0662_
*861 _0663_
*862 _0664_
*863 _0665_
*864 _0666_
*865 _0667_
*866 _0668_
*867 _0669_
*868 _0670_
*869 _0671_
*870 _0672_
*871 _0673_
*872 _0674_
*873 _0675_
*874 _0676_
*875 _0677_
*876 _0678_
*877 _0679_
*878 _0680_
*879 _0681_
*880 _0682_
*881 _0683_
*882 _0684_
*883 _0685_
*884 _0686_
*885 _0687_
*886 _0688_
*887 _0689_
*888 _0690_
*889 _0691_
*890 _0692_
*891 _0693_
*892 _0694_
*893 _0695_
*894 _0696_
*895 _0697_
*896 _0698_
*897 _0699_
*898 _0700_
*899 _0701_
*900 _0702_
*901 _0703_
*902 _0704_
*903 _0705_
*904 _0706_
*905 _0707_
*906 _0708_
*907 _0709_
*908 _0710_
*909 _0711_
*910 _0712_
*911 _0713_
*912 _0714_
*913 _0715_
*914 _0716_
*915 _0717_
*916 _0718_
*917 _0719_
*918 _0720_
*919 _0721_
*920 _0722_
*921 _0723_
*922 _0724_
*923 _0725_
*924 _0726_
*925 _0727_
*926 cnb\.average_counter_r\[0\]
*927 cnb\.average_counter_r\[1\]
*928 cnb\.average_counter_r\[2\]
*929 cnb\.average_counter_r\[3\]
*930 cnb\.average_counter_r\[4\]
*931 cnb\.average_sum_r\[0\]
*932 cnb\.average_sum_r\[1\]
*933 cnb\.average_sum_r\[2\]
*934 cnb\.average_sum_r\[3\]
*935 cnb\.average_sum_r\[4\]
*936 cnb\.conv_finished_r
*937 cnb\.conversion_ending_w
*938 cnb\.data_register_r\[0\]
*939 cnb\.data_register_r\[10\]
*940 cnb\.data_register_r\[11\]
*941 cnb\.data_register_r\[1\]
*942 cnb\.data_register_r\[2\]
*943 cnb\.data_register_r\[3\]
*944 cnb\.data_register_r\[4\]
*945 cnb\.data_register_r\[5\]
*946 cnb\.data_register_r\[6\]
*947 cnb\.data_register_r\[7\]
*948 cnb\.data_register_r\[8\]
*949 cnb\.data_register_r\[9\]
*950 cnb\.next_average_counter_w\[0\]
*951 cnb\.next_average_counter_w\[1\]
*952 cnb\.next_average_counter_w\[2\]
*953 cnb\.next_average_counter_w\[3\]
*954 cnb\.next_average_counter_w\[4\]
*955 cnb\.next_average_sum_w\[0\]
*956 cnb\.next_average_sum_w\[1\]
*957 cnb\.next_average_sum_w\[2\]
*958 cnb\.next_average_sum_w\[3\]
*959 cnb\.next_average_sum_w\[4\]
*960 cnb\.next_data_register_w\[0\]
*961 cnb\.next_data_register_w\[10\]
*962 cnb\.next_data_register_w\[11\]
*963 cnb\.next_data_register_w\[1\]
*964 cnb\.next_data_register_w\[2\]
*965 cnb\.next_data_register_w\[3\]
*966 cnb\.next_data_register_w\[4\]
*967 cnb\.next_data_register_w\[5\]
*968 cnb\.next_data_register_w\[6\]
*969 cnb\.next_data_register_w\[7\]
*970 cnb\.next_data_register_w\[8\]
*971 cnb\.next_data_register_w\[9\]
*972 cnb\.result_out\[0\]
*973 cnb\.result_out\[10\]
*974 cnb\.result_out\[11\]
*975 cnb\.result_out\[1\]
*976 cnb\.result_out\[2\]
*977 cnb\.result_out\[3\]
*978 cnb\.result_out\[4\]
*979 cnb\.result_out\[5\]
*980 cnb\.result_out\[6\]
*981 cnb\.result_out\[7\]
*982 cnb\.result_out\[8\]
*983 cnb\.result_out\[9\]
*984 cnb\.sampled_avg_control_r\[0\]
*985 cnb\.sampled_avg_control_r\[1\]
*986 cnb\.sampled_avg_control_r\[2\]
*987 cnb\.shift_register_r\[10\]
*988 cnb\.shift_register_r\[11\]
*989 cnb\.shift_register_r\[12\]
*990 cnb\.shift_register_r\[13\]
*991 cnb\.shift_register_r\[14\]
*992 cnb\.shift_register_r\[15\]
*993 cnb\.shift_register_r\[16\]
*994 cnb\.shift_register_r\[1\]
*995 cnb\.shift_register_r\[2\]
*996 cnb\.shift_register_r\[3\]
*997 cnb\.shift_register_r\[4\]
*998 cnb\.shift_register_r\[5\]
*999 cnb\.shift_register_r\[6\]
*1000 cnb\.shift_register_r\[7\]
*1001 cnb\.shift_register_r\[8\]
*1002 cnb\.shift_register_r\[9\]
*1003 net1
*1004 net10
*1005 net100
*1006 net101
*1007 net102
*1008 net103
*1009 net104
*1010 net105
*1011 net106
*1012 net107
*1013 net108
*1014 net109
*1015 net11
*1016 net110
*1017 net111
*1018 net112
*1019 net113
*1020 net114
*1021 net115
*1022 net116
*1023 net117
*1024 net118
*1025 net119
*1026 net12
*1027 net120
*1028 net121
*1029 net122
*1030 net123
*1031 net124
*1032 net125
*1033 net126
*1034 net127
*1035 net128
*1036 net129
*1037 net13
*1038 net130
*1039 net131
*1040 net132
*1041 net133
*1042 net134
*1043 net135
*1044 net136
*1045 net137
*1046 net138
*1047 net139
*1048 net14
*1049 net140
*1050 net141
*1051 net142
*1052 net143
*1053 net144
*1054 net145
*1055 net146
*1056 net147
*1057 net148
*1058 net149
*1059 net15
*1060 net150
*1061 net151
*1062 net152
*1063 net153
*1064 net154
*1065 net155
*1066 net156
*1067 net157
*1068 net158
*1069 net159
*1070 net16
*1071 net160
*1072 net161
*1073 net162
*1074 net163
*1075 net164
*1076 net165
*1077 net166
*1078 net167
*1079 net168
*1080 net169
*1081 net17
*1082 net170
*1083 net171
*1084 net172
*1085 net173
*1086 net174
*1087 net175
*1088 net176
*1089 net177
*1090 net178
*1091 net179
*1092 net18
*1093 net180
*1094 net181
*1095 net182
*1096 net183
*1097 net184
*1098 net185
*1099 net186
*1100 net187
*1101 net188
*1102 net189
*1103 net19
*1104 net190
*1105 net191
*1106 net192
*1107 net2
*1108 net20
*1109 net21
*1110 net22
*1111 net23
*1112 net24
*1113 net25
*1114 net26
*1115 net27
*1116 net28
*1117 net29
*1118 net3
*1119 net30
*1120 net31
*1121 net32
*1122 net33
*1123 net34
*1124 net35
*1125 net36
*1126 net37
*1127 net38
*1128 net39
*1129 net4
*1130 net40
*1131 net41
*1132 net42
*1133 net43
*1134 net44
*1135 net45
*1136 net46
*1137 net47
*1138 net48
*1139 net49
*1140 net5
*1141 net50
*1142 net51
*1143 net52
*1144 net53
*1145 net54
*1146 net55
*1147 net56
*1148 net57
*1149 net58
*1150 net59
*1151 net6
*1152 net60
*1153 net61
*1154 net62
*1155 net63
*1156 net64
*1157 net65
*1158 net66
*1159 net67
*1160 net68
*1161 net69
*1162 net7
*1163 net70
*1164 net71
*1165 net72
*1166 net73
*1167 net74
*1168 net75
*1169 net76
*1170 net77
*1171 net78
*1172 net79
*1173 net8
*1174 net80
*1175 net81
*1176 net82
*1177 net83
*1178 net84
*1179 net85
*1180 net86
*1181 net87
*1182 net88
*1183 net89
*1184 net9
*1185 net90
*1186 net91
*1187 net92
*1188 net93
*1189 net94
*1190 net95
*1191 net96
*1192 net97
*1193 net98
*1194 net99
*1195 osr\.clk_gated
*1196 osr\.next_conv_finished_w
*1197 osr\.next_result_w\[0\]
*1198 osr\.next_result_w\[10\]
*1199 osr\.next_result_w\[11\]
*1200 osr\.next_result_w\[12\]
*1201 osr\.next_result_w\[13\]
*1202 osr\.next_result_w\[14\]
*1203 osr\.next_result_w\[15\]
*1204 osr\.next_result_w\[16\]
*1205 osr\.next_result_w\[17\]
*1206 osr\.next_result_w\[18\]
*1207 osr\.next_result_w\[19\]
*1208 osr\.next_result_w\[1\]
*1209 osr\.next_result_w\[2\]
*1210 osr\.next_result_w\[3\]
*1211 osr\.next_result_w\[4\]
*1212 osr\.next_result_w\[5\]
*1213 osr\.next_result_w\[6\]
*1214 osr\.next_result_w\[7\]
*1215 osr\.next_result_w\[8\]
*1216 osr\.next_result_w\[9\]
*1217 osr\.next_sample_count_w\[0\]
*1218 osr\.next_sample_count_w\[1\]
*1219 osr\.next_sample_count_w\[2\]
*1220 osr\.next_sample_count_w\[3\]
*1221 osr\.next_sample_count_w\[4\]
*1222 osr\.next_sample_count_w\[5\]
*1223 osr\.next_sample_count_w\[6\]
*1224 osr\.next_sample_count_w\[7\]
*1225 osr\.next_sample_count_w\[8\]
*1226 osr\.osr_mode_r\[0\]
*1227 osr\.osr_mode_r\[1\]
*1228 osr\.osr_mode_r\[2\]
*1229 osr\.result_r\[0\]
*1230 osr\.result_r\[10\]
*1231 osr\.result_r\[11\]
*1232 osr\.result_r\[12\]
*1233 osr\.result_r\[13\]
*1234 osr\.result_r\[14\]
*1235 osr\.result_r\[15\]
*1236 osr\.result_r\[16\]
*1237 osr\.result_r\[17\]
*1238 osr\.result_r\[18\]
*1239 osr\.result_r\[19\]
*1240 osr\.result_r\[1\]
*1241 osr\.result_r\[2\]
*1242 osr\.result_r\[3\]
*1243 osr\.result_r\[4\]
*1244 osr\.result_r\[5\]
*1245 osr\.result_r\[6\]
*1246 osr\.result_r\[7\]
*1247 osr\.result_r\[8\]
*1248 osr\.result_r\[9\]
*1249 osr\.sample_count_r\[0\]
*1250 osr\.sample_count_r\[1\]
*1251 osr\.sample_count_r\[2\]
*1252 osr\.sample_count_r\[3\]
*1253 osr\.sample_count_r\[4\]
*1254 osr\.sample_count_r\[5\]
*1255 osr\.sample_count_r\[6\]
*1256 osr\.sample_count_r\[7\]
*1257 osr\.sample_count_r\[8\]
*1258 ANTENNA_1
*1259 ANTENNA_10
*1260 ANTENNA_2
*1261 ANTENNA_3
*1262 ANTENNA_4
*1263 ANTENNA_5
*1264 ANTENNA_6
*1265 ANTENNA_7
*1266 ANTENNA_8
*1267 ANTENNA_9
*1268 FILLER_0_102
*1269 FILLER_0_11
*1270 FILLER_0_111
*1271 FILLER_0_113
*1272 FILLER_0_121
*1273 FILLER_0_138
*1274 FILLER_0_141
*1275 FILLER_0_145
*1276 FILLER_0_153
*1277 FILLER_0_158
*1278 FILLER_0_167
*1279 FILLER_0_169
*1280 FILLER_0_178
*1281 FILLER_0_186
*1282 FILLER_0_19
*1283 FILLER_0_194
*1284 FILLER_0_197
*1285 FILLER_0_204
*1286 FILLER_0_214
*1287 FILLER_0_222
*1288 FILLER_0_225
*1289 FILLER_0_232
*1290 FILLER_0_240
*1291 FILLER_0_248
*1292 FILLER_0_253
*1293 FILLER_0_260
*1294 FILLER_0_268
*1295 FILLER_0_27
*1296 FILLER_0_276
*1297 FILLER_0_281
*1298 FILLER_0_288
*1299 FILLER_0_296
*1300 FILLER_0_3
*1301 FILLER_0_304
*1302 FILLER_0_309
*1303 FILLER_0_313
*1304 FILLER_0_35
*1305 FILLER_0_39
*1306 FILLER_0_47
*1307 FILLER_0_55
*1308 FILLER_0_57
*1309 FILLER_0_67
*1310 FILLER_0_75
*1311 FILLER_0_83
*1312 FILLER_0_85
*1313 FILLER_0_93
*1314 FILLER_10_105
*1315 FILLER_10_116
*1316 FILLER_10_12
*1317 FILLER_10_121
*1318 FILLER_10_130
*1319 FILLER_10_139
*1320 FILLER_10_141
*1321 FILLER_10_158
*1322 FILLER_10_165
*1323 FILLER_10_180
*1324 FILLER_10_19
*1325 FILLER_10_195
*1326 FILLER_10_197
*1327 FILLER_10_214
*1328 FILLER_10_240
*1329 FILLER_10_245
*1330 FILLER_10_251
*1331 FILLER_10_253
*1332 FILLER_10_265
*1333 FILLER_10_27
*1334 FILLER_10_277
*1335 FILLER_10_289
*1336 FILLER_10_29
*1337 FILLER_10_3
*1338 FILLER_10_301
*1339 FILLER_10_307
*1340 FILLER_10_309
*1341 FILLER_10_313
*1342 FILLER_10_38
*1343 FILLER_10_47
*1344 FILLER_10_56
*1345 FILLER_10_67
*1346 FILLER_10_73
*1347 FILLER_10_82
*1348 FILLER_10_85
*1349 FILLER_10_93
*1350 FILLER_11_10
*1351 FILLER_11_102
*1352 FILLER_11_111
*1353 FILLER_11_113
*1354 FILLER_11_123
*1355 FILLER_11_127
*1356 FILLER_11_135
*1357 FILLER_11_144
*1358 FILLER_11_153
*1359 FILLER_11_164
*1360 FILLER_11_169
*1361 FILLER_11_191
*1362 FILLER_11_200
*1363 FILLER_11_223
*1364 FILLER_11_225
*1365 FILLER_11_23
*1366 FILLER_11_232
*1367 FILLER_11_240
*1368 FILLER_11_246
*1369 FILLER_11_258
*1370 FILLER_11_270
*1371 FILLER_11_278
*1372 FILLER_11_281
*1373 FILLER_11_293
*1374 FILLER_11_3
*1375 FILLER_11_305
*1376 FILLER_11_313
*1377 FILLER_11_48
*1378 FILLER_11_55
*1379 FILLER_11_57
*1380 FILLER_11_61
*1381 FILLER_11_71
*1382 FILLER_11_81
*1383 FILLER_11_89
*1384 FILLER_12_10
*1385 FILLER_12_102
*1386 FILLER_12_111
*1387 FILLER_12_124
*1388 FILLER_12_135
*1389 FILLER_12_139
*1390 FILLER_12_141
*1391 FILLER_12_163
*1392 FILLER_12_168
*1393 FILLER_12_192
*1394 FILLER_12_197
*1395 FILLER_12_210
*1396 FILLER_12_233
*1397 FILLER_12_242
*1398 FILLER_12_250
*1399 FILLER_12_253
*1400 FILLER_12_265
*1401 FILLER_12_27
*1402 FILLER_12_277
*1403 FILLER_12_289
*1404 FILLER_12_29
*1405 FILLER_12_3
*1406 FILLER_12_301
*1407 FILLER_12_307
*1408 FILLER_12_309
*1409 FILLER_12_313
*1410 FILLER_12_38
*1411 FILLER_12_46
*1412 FILLER_12_55
*1413 FILLER_12_63
*1414 FILLER_12_74
*1415 FILLER_12_83
*1416 FILLER_12_85
*1417 FILLER_12_92
*1418 FILLER_13_102
*1419 FILLER_13_111
*1420 FILLER_13_113
*1421 FILLER_13_122
*1422 FILLER_13_131
*1423 FILLER_13_137
*1424 FILLER_13_145
*1425 FILLER_13_15
*1426 FILLER_13_157
*1427 FILLER_13_161
*1428 FILLER_13_167
*1429 FILLER_13_169
*1430 FILLER_13_179
*1431 FILLER_13_185
*1432 FILLER_13_199
*1433 FILLER_13_223
*1434 FILLER_13_225
*1435 FILLER_13_232
*1436 FILLER_13_244
*1437 FILLER_13_256
*1438 FILLER_13_268
*1439 FILLER_13_281
*1440 FILLER_13_293
*1441 FILLER_13_3
*1442 FILLER_13_305
*1443 FILLER_13_313
*1444 FILLER_13_39
*1445 FILLER_13_46
*1446 FILLER_13_55
*1447 FILLER_13_57
*1448 FILLER_13_67
*1449 FILLER_13_79
*1450 FILLER_13_90
*1451 FILLER_14_106
*1452 FILLER_14_110
*1453 FILLER_14_118
*1454 FILLER_14_130
*1455 FILLER_14_139
*1456 FILLER_14_141
*1457 FILLER_14_167
*1458 FILLER_14_190
*1459 FILLER_14_197
*1460 FILLER_14_20
*1461 FILLER_14_209
*1462 FILLER_14_218
*1463 FILLER_14_243
*1464 FILLER_14_251
*1465 FILLER_14_253
*1466 FILLER_14_265
*1467 FILLER_14_27
*1468 FILLER_14_277
*1469 FILLER_14_289
*1470 FILLER_14_29
*1471 FILLER_14_3
*1472 FILLER_14_301
*1473 FILLER_14_307
*1474 FILLER_14_309
*1475 FILLER_14_313
*1476 FILLER_14_37
*1477 FILLER_14_52
*1478 FILLER_14_62
*1479 FILLER_14_73
*1480 FILLER_14_77
*1481 FILLER_14_83
*1482 FILLER_14_85
*1483 FILLER_14_93
*1484 FILLER_15_10
*1485 FILLER_15_103
*1486 FILLER_15_110
*1487 FILLER_15_113
*1488 FILLER_15_122
*1489 FILLER_15_131
*1490 FILLER_15_139
*1491 FILLER_15_145
*1492 FILLER_15_167
*1493 FILLER_15_169
*1494 FILLER_15_181
*1495 FILLER_15_203
*1496 FILLER_15_218
*1497 FILLER_15_223
*1498 FILLER_15_225
*1499 FILLER_15_231
*1500 FILLER_15_237
*1501 FILLER_15_249
*1502 FILLER_15_261
*1503 FILLER_15_273
*1504 FILLER_15_279
*1505 FILLER_15_281
*1506 FILLER_15_293
*1507 FILLER_15_3
*1508 FILLER_15_305
*1509 FILLER_15_313
*1510 FILLER_15_35
*1511 FILLER_15_50
*1512 FILLER_15_57
*1513 FILLER_15_79
*1514 FILLER_15_90
*1515 FILLER_15_94
*1516 FILLER_16_10
*1517 FILLER_16_111
*1518 FILLER_16_120
*1519 FILLER_16_135
*1520 FILLER_16_139
*1521 FILLER_16_141
*1522 FILLER_16_148
*1523 FILLER_16_159
*1524 FILLER_16_170
*1525 FILLER_16_180
*1526 FILLER_16_185
*1527 FILLER_16_195
*1528 FILLER_16_197
*1529 FILLER_16_201
*1530 FILLER_16_212
*1531 FILLER_16_221
*1532 FILLER_16_228
*1533 FILLER_16_235
*1534 FILLER_16_247
*1535 FILLER_16_251
*1536 FILLER_16_253
*1537 FILLER_16_265
*1538 FILLER_16_27
*1539 FILLER_16_277
*1540 FILLER_16_289
*1541 FILLER_16_29
*1542 FILLER_16_3
*1543 FILLER_16_301
*1544 FILLER_16_307
*1545 FILLER_16_309
*1546 FILLER_16_313
*1547 FILLER_16_43
*1548 FILLER_16_52
*1549 FILLER_16_61
*1550 FILLER_16_70
*1551 FILLER_16_75
*1552 FILLER_16_83
*1553 FILLER_16_85
*1554 FILLER_16_99
*1555 FILLER_17_103
*1556 FILLER_17_111
*1557 FILLER_17_113
*1558 FILLER_17_121
*1559 FILLER_17_127
*1560 FILLER_17_135
*1561 FILLER_17_144
*1562 FILLER_17_167
*1563 FILLER_17_169
*1564 FILLER_17_181
*1565 FILLER_17_191
*1566 FILLER_17_201
*1567 FILLER_17_212
*1568 FILLER_17_221
*1569 FILLER_17_225
*1570 FILLER_17_232
*1571 FILLER_17_239
*1572 FILLER_17_251
*1573 FILLER_17_263
*1574 FILLER_17_275
*1575 FILLER_17_279
*1576 FILLER_17_281
*1577 FILLER_17_293
*1578 FILLER_17_3
*1579 FILLER_17_305
*1580 FILLER_17_313
*1581 FILLER_17_32
*1582 FILLER_17_42
*1583 FILLER_17_50
*1584 FILLER_17_57
*1585 FILLER_17_66
*1586 FILLER_17_7
*1587 FILLER_17_70
*1588 FILLER_17_93
*1589 FILLER_18_113
*1590 FILLER_18_128
*1591 FILLER_18_136
*1592 FILLER_18_141
*1593 FILLER_18_15
*1594 FILLER_18_167
*1595 FILLER_18_177
*1596 FILLER_18_188
*1597 FILLER_18_195
*1598 FILLER_18_197
*1599 FILLER_18_208
*1600 FILLER_18_21
*1601 FILLER_18_214
*1602 FILLER_18_238
*1603 FILLER_18_245
*1604 FILLER_18_251
*1605 FILLER_18_253
*1606 FILLER_18_265
*1607 FILLER_18_27
*1608 FILLER_18_277
*1609 FILLER_18_289
*1610 FILLER_18_29
*1611 FILLER_18_3
*1612 FILLER_18_301
*1613 FILLER_18_307
*1614 FILLER_18_309
*1615 FILLER_18_313
*1616 FILLER_18_42
*1617 FILLER_18_57
*1618 FILLER_18_65
*1619 FILLER_18_83
*1620 FILLER_18_85
*1621 FILLER_18_94
*1622 FILLER_19_103
*1623 FILLER_19_111
*1624 FILLER_19_113
*1625 FILLER_19_119
*1626 FILLER_19_142
*1627 FILLER_19_146
*1628 FILLER_19_153
*1629 FILLER_19_164
*1630 FILLER_19_169
*1631 FILLER_19_175
*1632 FILLER_19_186
*1633 FILLER_19_19
*1634 FILLER_19_192
*1635 FILLER_19_200
*1636 FILLER_19_208
*1637 FILLER_19_223
*1638 FILLER_19_225
*1639 FILLER_19_229
*1640 FILLER_19_245
*1641 FILLER_19_259
*1642 FILLER_19_265
*1643 FILLER_19_277
*1644 FILLER_19_281
*1645 FILLER_19_293
*1646 FILLER_19_3
*1647 FILLER_19_305
*1648 FILLER_19_313
*1649 FILLER_19_43
*1650 FILLER_19_52
*1651 FILLER_19_57
*1652 FILLER_19_7
*1653 FILLER_19_80
*1654 FILLER_1_10
*1655 FILLER_1_106
*1656 FILLER_1_111
*1657 FILLER_1_113
*1658 FILLER_1_119
*1659 FILLER_1_142
*1660 FILLER_1_167
*1661 FILLER_1_169
*1662 FILLER_1_18
*1663 FILLER_1_193
*1664 FILLER_1_198
*1665 FILLER_1_208
*1666 FILLER_1_223
*1667 FILLER_1_225
*1668 FILLER_1_247
*1669 FILLER_1_255
*1670 FILLER_1_263
*1671 FILLER_1_268
*1672 FILLER_1_272
*1673 FILLER_1_279
*1674 FILLER_1_281
*1675 FILLER_1_285
*1676 FILLER_1_295
*1677 FILLER_1_3
*1678 FILLER_1_303
*1679 FILLER_1_313
*1680 FILLER_1_35
*1681 FILLER_1_39
*1682 FILLER_1_47
*1683 FILLER_1_55
*1684 FILLER_1_57
*1685 FILLER_1_80
*1686 FILLER_20_10
*1687 FILLER_20_114
*1688 FILLER_20_139
*1689 FILLER_20_141
*1690 FILLER_20_15
*1691 FILLER_20_164
*1692 FILLER_20_170
*1693 FILLER_20_181
*1694 FILLER_20_195
*1695 FILLER_20_197
*1696 FILLER_20_205
*1697 FILLER_20_225
*1698 FILLER_20_233
*1699 FILLER_20_248
*1700 FILLER_20_253
*1701 FILLER_20_260
*1702 FILLER_20_268
*1703 FILLER_20_27
*1704 FILLER_20_273
*1705 FILLER_20_285
*1706 FILLER_20_29
*1707 FILLER_20_299
*1708 FILLER_20_3
*1709 FILLER_20_307
*1710 FILLER_20_309
*1711 FILLER_20_313
*1712 FILLER_20_37
*1713 FILLER_20_45
*1714 FILLER_20_60
*1715 FILLER_20_83
*1716 FILLER_20_85
*1717 FILLER_20_92
*1718 FILLER_20_99
*1719 FILLER_21_10
*1720 FILLER_21_111
*1721 FILLER_21_113
*1722 FILLER_21_130
*1723 FILLER_21_153
*1724 FILLER_21_159
*1725 FILLER_21_167
*1726 FILLER_21_169
*1727 FILLER_21_179
*1728 FILLER_21_188
*1729 FILLER_21_19
*1730 FILLER_21_196
*1731 FILLER_21_204
*1732 FILLER_21_214
*1733 FILLER_21_223
*1734 FILLER_21_225
*1735 FILLER_21_239
*1736 FILLER_21_243
*1737 FILLER_21_260
*1738 FILLER_21_268
*1739 FILLER_21_275
*1740 FILLER_21_279
*1741 FILLER_21_281
*1742 FILLER_21_288
*1743 FILLER_21_296
*1744 FILLER_21_3
*1745 FILLER_21_304
*1746 FILLER_21_31
*1747 FILLER_21_313
*1748 FILLER_21_37
*1749 FILLER_21_46
*1750 FILLER_21_55