* XSpice netlist created from SPICE and liberty sources by spi2xspice.py
* NGSPICE file created from adc_core_digital.ext - technology: sky130A
.subckt adc_core_digital a_VPWR a_VGND a_clk_dig_in a_comparator_in a_config_1_in_0_ a_config_1_in_1_ a_config_1_in_2_ a_config_1_in_3_ a_config_1_in_4_ a_config_1_in_5_ a_config_1_in_6_ a_config_1_in_7_ a_config_1_in_8_ a_config_1_in_9_ a_config_1_in_10_ a_config_1_in_11_ a_config_1_in_12_ a_config_1_in_13_ a_config_1_in_14_ a_config_1_in_15_ a_config_2_in_0_ a_config_2_in_1_ a_config_2_in_2_ a_config_2_in_3_ a_config_2_in_4_ a_config_2_in_5_ a_config_2_in_6_ a_config_2_in_7_ a_config_2_in_8_ a_config_2_in_9_ a_config_2_in_10_ a_config_2_in_11_ a_config_2_in_12_ a_config_2_in_13_ a_config_2_in_14_ a_config_2_in_15_ a_conv_finished_out a_enable_loop_out a_nmatrix_bincap_out_n_0_ a_nmatrix_bincap_out_n_1_ a_nmatrix_bincap_out_n_2_ a_nmatrix_c0_out_n a_nmatrix_col_out_n_0_ a_nmatrix_col_out_n_1_ a_nmatrix_col_out_n_2_ a_nmatrix_col_out_n_3_ a_nmatrix_col_out_n_4_ a_nmatrix_col_out_n_5_ a_nmatrix_col_out_n_6_ a_nmatrix_col_out_n_7_ a_nmatrix_col_out_n_8_ a_nmatrix_col_out_n_9_ a_nmatrix_col_out_n_10_ a_nmatrix_col_out_n_11_ a_nmatrix_col_out_n_12_ a_nmatrix_col_out_n_13_ a_nmatrix_col_out_n_14_ a_nmatrix_col_out_n_15_ a_nmatrix_col_out_n_16_ a_nmatrix_col_out_n_17_ a_nmatrix_col_out_n_18_ a_nmatrix_col_out_n_19_  a_nmatrix_col_out_n_20_ a_nmatrix_col_out_n_21_ a_nmatrix_col_out_n_22_ a_nmatrix_col_out_n_23_ a_nmatrix_col_out_n_24_ a_nmatrix_col_out_n_25_ a_nmatrix_col_out_n_26_ a_nmatrix_col_out_n_27_ a_nmatrix_col_out_n_28_ a_nmatrix_col_out_n_29_  a_nmatrix_col_out_n_30_ a_nmatrix_col_out_n_31_ a_nmatrix_row_out_n_0_ a_nmatrix_row_out_n_1_ a_nmatrix_row_out_n_2_ a_nmatrix_row_out_n_3_ a_nmatrix_row_out_n_4_ a_nmatrix_row_out_n_5_ a_nmatrix_row_out_n_6_ a_nmatrix_row_out_n_7_ a_nmatrix_row_out_n_8_ a_nmatrix_row_out_n_9_  a_nmatrix_row_out_n_10_ a_nmatrix_row_out_n_11_ a_nmatrix_row_out_n_12_ a_nmatrix_row_out_n_13_ a_nmatrix_row_out_n_14_ a_nmatrix_row_out_n_15_ a_nmatrix_rowon_out_n_0_ a_nmatrix_rowon_out_n_1_ a_nmatrix_rowon_out_n_2_ a_nmatrix_rowon_out_n_3_ a_nmatrix_rowon_out_n_4_ a_nmatrix_rowon_out_n_5_ a_nmatrix_rowon_out_n_6_ a_nmatrix_rowon_out_n_7_ a_nmatrix_rowon_out_n_8_ a_nmatrix_rowon_out_n_9_ a_nmatrix_rowon_out_n_10_ a_nmatrix_rowon_out_n_11_ a_nmatrix_rowon_out_n_12_ a_nmatrix_rowon_out_n_13_ a_nmatrix_rowon_out_n_14_ a_nmatrix_rowon_out_n_15_ a_pmatrix_bincap_out_n_0_ a_pmatrix_bincap_out_n_1_ a_pmatrix_bincap_out_n_2_ a_pmatrix_c0_out_n a_pmatrix_col_out_n_0_ a_pmatrix_col_out_n_1_ a_pmatrix_col_out_n_2_ a_pmatrix_col_out_n_3_ a_pmatrix_col_out_n_4_ a_pmatrix_col_out_n_5_ a_pmatrix_col_out_n_6_ a_pmatrix_col_out_n_7_ a_pmatrix_col_out_n_8_ a_pmatrix_col_out_n_9_ a_pmatrix_col_out_n_10_ a_pmatrix_col_out_n_11_ a_pmatrix_col_out_n_12_ a_pmatrix_col_out_n_13_ a_pmatrix_col_out_n_14_ a_pmatrix_col_out_n_15_ a_pmatrix_col_out_n_16_ a_pmatrix_col_out_n_17_ a_pmatrix_col_out_n_18_ a_pmatrix_col_out_n_19_  a_pmatrix_col_out_n_20_ a_pmatrix_col_out_n_21_ a_pmatrix_col_out_n_22_ a_pmatrix_col_out_n_23_ a_pmatrix_col_out_n_24_ a_pmatrix_col_out_n_25_ a_pmatrix_col_out_n_26_ a_pmatrix_col_out_n_27_ a_pmatrix_col_out_n_28_ a_pmatrix_col_out_n_29_  a_pmatrix_col_out_n_30_ a_pmatrix_col_out_n_31_ a_pmatrix_row_out_n_0_ a_pmatrix_row_out_n_1_ a_pmatrix_row_out_n_2_ a_pmatrix_row_out_n_3_ a_pmatrix_row_out_n_4_ a_pmatrix_row_out_n_5_ a_pmatrix_row_out_n_6_ a_pmatrix_row_out_n_7_ a_pmatrix_row_out_n_8_ a_pmatrix_row_out_n_9_ a_pmatrix_row_out_n_10_ a_pmatrix_row_out_n_11_ a_pmatrix_row_out_n_12_ a_pmatrix_row_out_n_13_ a_pmatrix_row_out_n_14_ a_pmatrix_row_out_n_15_ a_pmatrix_rowon_out_n_0_ a_pmatrix_rowon_out_n_1_ a_pmatrix_rowon_out_n_2_ a_pmatrix_rowon_out_n_3_ a_pmatrix_rowon_out_n_4_ a_pmatrix_rowon_out_n_5_ a_pmatrix_rowon_out_n_6_ a_pmatrix_rowon_out_n_7_ a_pmatrix_rowon_out_n_8_ a_pmatrix_rowon_out_n_9_ a_pmatrix_rowon_out_n_10_ a_pmatrix_rowon_out_n_11_ a_pmatrix_rowon_out_n_12_ a_pmatrix_rowon_out_n_13_ a_pmatrix_rowon_out_n_14_ a_pmatrix_rowon_out_n_15_ a_result_out_0_ a_result_out_1_ a_result_out_2_ a_result_out_3_ a_result_out_4_ a_result_out_5_ a_result_out_6_ a_result_out_7_ a_result_out_8_ a_result_out_9_ a_result_out_10_ a_result_out_11_ a_result_out_12_ a_result_out_13_ a_result_out_14_ a_result_out_15_ a_rst_n a_sample_matrix_out a_sample_matrix_out_n a_sample_switch_out a_sample_switch_out_n a_nmatrix_rowoff_out_n_0_ a_nmatrix_rowoff_out_n_1_ a_nmatrix_rowoff_out_n_2_ a_nmatrix_rowoff_out_n_3_ a_nmatrix_rowoff_out_n_4_ a_nmatrix_rowoff_out_n_5_ a_nmatrix_rowoff_out_n_6_ a_nmatrix_rowoff_out_n_7_ a_nmatrix_rowoff_out_n_8_ a_nmatrix_rowoff_out_n_9_ a_nmatrix_rowoff_out_n_10_ a_nmatrix_rowoff_out_n_11_ a_nmatrix_rowoff_out_n_12_ a_nmatrix_rowoff_out_n_13_ a_nmatrix_rowoff_out_n_14_ a_nmatrix_rowoff_out_n_15_ a_nmatrix_col_out_0_ a_nmatrix_col_out_1_ a_nmatrix_col_out_2_ a_nmatrix_col_out_3_ a_nmatrix_col_out_4_ a_nmatrix_col_out_5_ a_nmatrix_col_out_6_ a_nmatrix_col_out_7_ a_nmatrix_col_out_8_ a_nmatrix_col_out_9_ a_nmatrix_col_out_10_ a_nmatrix_col_out_11_ a_nmatrix_col_out_12_ a_nmatrix_col_out_13_ a_nmatrix_col_out_14_ a_nmatrix_col_out_15_ a_nmatrix_col_out_16_ a_nmatrix_col_out_17_ a_nmatrix_col_out_18_ a_nmatrix_col_out_19_  a_nmatrix_col_out_20_ a_nmatrix_col_out_21_ a_nmatrix_col_out_22_ a_nmatrix_col_out_23_ a_nmatrix_col_out_24_ a_nmatrix_col_out_25_ a_nmatrix_col_out_26_ a_nmatrix_col_out_27_ a_nmatrix_col_out_28_ a_nmatrix_col_out_29_  a_nmatrix_col_out_30_ a_nmatrix_col_out_31_ a_pmatrix_rowoff_out_n_0_ a_pmatrix_rowoff_out_n_1_ a_pmatrix_rowoff_out_n_2_ a_pmatrix_rowoff_out_n_3_ a_pmatrix_rowoff_out_n_4_ a_pmatrix_rowoff_out_n_5_ a_pmatrix_rowoff_out_n_6_ a_pmatrix_rowoff_out_n_7_ a_pmatrix_rowoff_out_n_8_ a_pmatrix_rowoff_out_n_9_ a_pmatrix_rowoff_out_n_10_ a_pmatrix_rowoff_out_n_11_ a_pmatrix_rowoff_out_n_12_ a_pmatrix_rowoff_out_n_13_ a_pmatrix_rowoff_out_n_14_ a_pmatrix_rowoff_out_n_15_ a_pmatrix_col_out_0_ a_pmatrix_col_out_1_ a_pmatrix_col_out_2_ a_pmatrix_col_out_3_ a_pmatrix_col_out_4_ a_pmatrix_col_out_5_ a_pmatrix_col_out_6_ a_pmatrix_col_out_7_ a_pmatrix_col_out_8_ a_pmatrix_col_out_9_ a_pmatrix_col_out_10_ a_pmatrix_col_out_11_ a_pmatrix_col_out_12_ a_pmatrix_col_out_13_ a_pmatrix_col_out_14_ a_pmatrix_col_out_15_ a_pmatrix_col_out_16_ a_pmatrix_col_out_17_ a_pmatrix_col_out_18_ a_pmatrix_col_out_19_  a_pmatrix_col_out_20_ a_pmatrix_col_out_21_ a_pmatrix_col_out_22_ a_pmatrix_col_out_23_ a_pmatrix_col_out_24_ a_pmatrix_col_out_25_ a_pmatrix_col_out_26_ a_pmatrix_col_out_27_ a_pmatrix_col_out_28_ a_pmatrix_col_out_29_  a_pmatrix_col_out_30_ a_pmatrix_col_out_31_ a_conv_finished_osr_out 
A_2106_ [_0319_ _0420_] _0027_ d_lut_sky130_fd_sc_hd__nor2_1
A_2037_ [_0316_ _0334_ _0353_] _0355_ d_lut_sky130_fd_sc_hd__and3_1
A_1270_ [_0767_ _0732_ _0825_] _0826_ d_lut_sky130_fd_sc_hd__o21a_1
A_1606_ [_0738_ _0069_] _0070_ d_lut_sky130_fd_sc_hd__nand2_1
A_1537_ [_0852_ _0997_ _1001_] net75 d_lut_sky130_fd_sc_hd__o21ai_4
A_1468_ [cnb.data_register_r\_11\_ net8] _0952_ d_lut_sky130_fd_sc_hd__or2_1
A_1399_ [_0906_ _0907_] _0908_ d_lut_sky130_fd_sc_hd__and2_1
A_2440_ _0051_ clknet_2_1__leaf_clk_dig_in NULL ~net278 cnb.result_out\_0\_ NULL ddflop
A_2371_ _0013_ clknet_2_1__leaf_clk_dig_in NULL ~net280 cnb.shift_register_r\_10\_ NULL ddflop
A_1322_ [_0737_ _0791_] _0860_ d_lut_sky130_fd_sc_hd__or2_1
A_1253_ [_0767_ _0790_ _0808_] _0811_ d_lut_sky130_fd_sc_hd__a21oi_2
A_1184_ [_0733_] _0756_ d_lut_sky130_fd_sc_hd__clkbuf_4
Aoutput253 [net253] result_out_3_ d_lut_sky130_fd_sc_hd__buf_2
Aoutput220 [net220] pmatrix_rowoff_out_n_2_ d_lut_sky130_fd_sc_hd__buf_2
Aoutput231 [net231] pmatrix_rowon_out_n_12_ d_lut_sky130_fd_sc_hd__buf_2
Aoutput242 [net242] pmatrix_rowon_out_n_8_ d_lut_sky130_fd_sc_hd__buf_2
A_1940_ [cnb.shift_register_r\_5\_ cnb.shift_register_r\_4\_ _0678_] _0275_ d_lut_sky130_fd_sc_hd__mux2_1
A_1871_ [osr.sample_count_r\_0\_ osr.sample_count_r\_1\_] _0249_ d_lut_sky130_fd_sc_hd__xnor2_1
A_2423_ osr.next_result_w\_19\_ net264 NULL ~net272 osr.result_r\_19\_ NULL ddflop
A_2354_ [_0756_ _0120_ _0618_] _0634_ d_lut_sky130_fd_sc_hd__or3_1
A_1305_ [net170] net138 d_lut_sky130_fd_sc_hd__clkinv_2
A_2285_ [_0645_ osr.next_result_w\_13\_ osr.next_result_w\_15\_ _0532_ _0664_] _0581_ d_lut_sky130_fd_sc_hd__o221a_1
A_1236_ [_0733_ _0797_] _0798_ d_lut_sky130_fd_sc_hd__or2_1
A_1167_ [_0712_] _0741_ d_lut_sky130_fd_sc_hd__buf_2
A_1098_ [cnb.average_sum_r\_2\_ _0687_] _0688_ d_lut_sky130_fd_sc_hd__xnor2_1
A_2070_ [_0344_ _0385_ _0386_ _0383_ _0333_] _0387_ d_lut_sky130_fd_sc_hd__o32a_1
A_1923_ [_0266_] cnb.next_conv_finished_w d_lut_sky130_fd_sc_hd__clkbuf_1
A_1854_ [osr.result_r\_14\_ _0235_] _0238_ d_lut_sky130_fd_sc_hd__and2_1
A_1785_ [_0176_ _0177_ _0178_ _0179_] _0180_ d_lut_sky130_fd_sc_hd__or4_1
A_2406_ osr.next_result_w\_2\_ net267 NULL ~net276 osr.result_r\_2\_ NULL ddflop
A_2337_ [_0784_ _0618_] _0622_ d_lut_sky130_fd_sc_hd__xnor2_1
A_2268_ [_0664_ osr.next_result_w\_11\_ _0556_ _0562_ _0567_] _0042_ d_lut_sky130_fd_sc_hd__a311o_1
A_1219_ [_0782_ _0739_ _0783_ _0784_] _0785_ d_lut_sky130_fd_sc_hd__o211a_1
A_2199_ [_0957_ _0265_ _0507_] _0509_ d_lut_sky130_fd_sc_hd__and3_1
A_1570_ [_0767_ _0993_ _0808_] _1025_ d_lut_sky130_fd_sc_hd__a21o_1
A_2122_ [_0433_ _0414_] _0436_ d_lut_sky130_fd_sc_hd__nand2_1
A_2053_ [cnb.shift_register_r\_8\_ cnb.shift_register_r\_11\_ cnb.shift_register_r\_10\_ cnb.shift_register_r\_9\_] _0370_ d_lut_sky130_fd_sc_hd__or4b_2
A_1906_ [net232 net200] net216 d_lut_sky130_fd_sc_hd__nand2_1
A_1837_ [_0642_ _0223_ _0224_] _0225_ d_lut_sky130_fd_sc_hd__or3b_1
A_1768_ [cnb.result_out\_4\_ _0164_] _0165_ d_lut_sky130_fd_sc_hd__xnor2_2
A_1699_ [net111 _0120_ _0903_] net127 d_lut_sky130_fd_sc_hd__a21boi_4
Aoutput31 [net31] nmatrix_col_out_22_ d_lut_sky130_fd_sc_hd__buf_2
Aoutput20 [net20] nmatrix_col_out_12_ d_lut_sky130_fd_sc_hd__buf_2
Aoutput42 [net42] nmatrix_col_out_3_ d_lut_sky130_fd_sc_hd__buf_2
Aoutput53 [net53] nmatrix_col_out_n_13_ d_lut_sky130_fd_sc_hd__buf_2
Aoutput75 [net75] nmatrix_col_out_n_4_ d_lut_sky130_fd_sc_hd__buf_2
Aoutput64 [net64] nmatrix_col_out_n_23_ d_lut_sky130_fd_sc_hd__buf_2
Aoutput97 [net97] nmatrix_rowoff_out_n_0_ d_lut_sky130_fd_sc_hd__buf_2
Aoutput86 [net86] nmatrix_row_out_n_14_ d_lut_sky130_fd_sc_hd__buf_2
A_1622_ [net57] net25 d_lut_sky130_fd_sc_hd__clkinv_2
A_1553_ [net77] net45 d_lut_sky130_fd_sc_hd__inv_2
A_1484_ [_0962_] net200 d_lut_sky130_fd_sc_hd__clkbuf_4
A_2105_ [_0715_ _0419_] _0420_ d_lut_sky130_fd_sc_hd__xnor2_1
A_2036_ [_0316_ _0334_ _0353_] _0354_ d_lut_sky130_fd_sc_hd__a21oi_1
A_1605_ [_0067_ _0068_ _0847_] _0069_ d_lut_sky130_fd_sc_hd__mux2_1
A_1536_ [_0738_ _1000_] _1001_ d_lut_sky130_fd_sc_hd__nand2_1
A_1467_ [_0918_ net226 _0917_] net210 d_lut_sky130_fd_sc_hd__nand3_2
A_1398_ [_0898_ _0699_] _0907_ d_lut_sky130_fd_sc_hd__nand2_1
A_2019_ [cnb.shift_register_r\_16\_ cnb.shift_register_r\_15\_ cnb.shift_register_r\_14\_] _0337_ d_lut_sky130_fd_sc_hd__or3_1
A_2370_ _0012_ clknet_2_1__leaf_clk_dig_in NULL ~net280 cnb.shift_register_r\_9\_ NULL ddflop
A_1321_ [_0727_ _0833_ _0858_] _0859_ d_lut_sky130_fd_sc_hd__o21ai_1
A_1252_ [net194] net162 d_lut_sky130_fd_sc_hd__inv_2
A_1183_ [_0719_] _0755_ d_lut_sky130_fd_sc_hd__buf_2
Aoutput210 [net210] pmatrix_row_out_n_8_ d_lut_sky130_fd_sc_hd__buf_2
Aoutput221 [net221] pmatrix_rowoff_out_n_3_ d_lut_sky130_fd_sc_hd__buf_2
Aoutput243 [net243] pmatrix_rowon_out_n_9_ d_lut_sky130_fd_sc_hd__buf_2
Aoutput232 [net232] pmatrix_rowon_out_n_13_ d_lut_sky130_fd_sc_hd__buf_2
Aoutput254 [net254] result_out_4_ d_lut_sky130_fd_sc_hd__buf_2
A_1519_ [_0755_ _0975_ _0773_] _0988_ d_lut_sky130_fd_sc_hd__o21a_1
Aclkbuf_2_0__f_clk_dig_in [clknet_0_clk_dig_in] clknet_2_0__leaf_clk_dig_in d_lut_sky130_fd_sc_hd__clkbuf_16
A_1870_ [osr.sample_count_r\_0\_ _0665_] osr.next_sample_count_w\_0\_ d_lut_sky130_fd_sc_hd__nand2_1
A_2422_ osr.next_result_w\_18\_ net264 NULL ~net272 osr.result_r\_18\_ NULL ddflop
A_2353_ [_0633_] _0061_ d_lut_sky130_fd_sc_hd__clkbuf_1
A_1304_ [_0794_ _0742_ _0849_] net170 d_lut_sky130_fd_sc_hd__o21a_2
A_2284_ [_0648_ _0647_ _0564_ _0551_ osr.next_result_w\_11\_] _0580_ d_lut_sky130_fd_sc_hd__o32a_1
A_1235_ [_0719_ _0718_] _0797_ d_lut_sky130_fd_sc_hd__and2_1
A_1166_ [_0735_ _0739_] _0740_ d_lut_sky130_fd_sc_hd__or2_1
A_1097_ [cnb.average_sum_r\_1\_ net1 cnb.average_sum_r\_0\_] _0687_ d_lut_sky130_fd_sc_hd__and3_1
A_1999_ [net129 _0680_ _0316_] _0318_ d_lut_sky130_fd_sc_hd__or3b_1
A_1922_ [cnb.is_holding_result_w _0265_] _0266_ d_lut_sky130_fd_sc_hd__and2_1
A_1853_ [_0237_] osr.next_result_w\_14\_ d_lut_sky130_fd_sc_hd__clkinv_2
A_1784_ [cnb.result_out\_7\_ osr.result_r\_7\_] _0179_ d_lut_sky130_fd_sc_hd__xnor2_1
A_2405_ osr.next_result_w\_1\_ net267 NULL ~net276 osr.result_r\_1\_ NULL ddflop
A_2336_ [_0621_] _0056_ d_lut_sky130_fd_sc_hd__clkbuf_1
A_2267_ [_0664_ _0532_ _0566_] _0567_ d_lut_sky130_fd_sc_hd__and3_1
A_1218_ [_0767_] _0784_ d_lut_sky130_fd_sc_hd__clkbuf_4
A_2198_ [_0684_ _0507_ _0957_] _0508_ d_lut_sky130_fd_sc_hd__a21oi_1
A_1149_ [cnb.data_register_r\_8\_] _0725_ d_lut_sky130_fd_sc_hd__clkbuf_4
A_2121_ [_0383_ _0375_ _0398_] _0435_ d_lut_sky130_fd_sc_hd__a21o_1
A_2052_ [_0367_ _0368_] _0369_ d_lut_sky130_fd_sc_hd__nor2_1
A_1905_ [net231 net199] net215 d_lut_sky130_fd_sc_hd__nand2_1
A_1836_ [osr.result_r\_11\_ _0222_] _0224_ d_lut_sky130_fd_sc_hd__nand2_1
A_1767_ [_0642_ _0163_] _0164_ d_lut_sky130_fd_sc_hd__nor2_1
A_1698_ [_0706_ _0708_] _0120_ d_lut_sky130_fd_sc_hd__nand2_2
A_2319_ [_0607_] _0053_ d_lut_sky130_fd_sc_hd__clkbuf_1
Aoutput32 [net32] nmatrix_col_out_23_ d_lut_sky130_fd_sc_hd__buf_2
Aoutput43 [net43] nmatrix_col_out_4_ d_lut_sky130_fd_sc_hd__buf_2
Aoutput21 [net21] nmatrix_col_out_13_ d_lut_sky130_fd_sc_hd__buf_2
Aoutput76 [net76] nmatrix_col_out_n_5_ d_lut_sky130_fd_sc_hd__buf_2
Aoutput54 [net54] nmatrix_col_out_n_14_ d_lut_sky130_fd_sc_hd__buf_2
Aoutput65 [net65] nmatrix_col_out_n_24_ d_lut_sky130_fd_sc_hd__buf_2
Aoutput98 [net98] nmatrix_rowoff_out_n_10_ d_lut_sky130_fd_sc_hd__buf_2
Aoutput87 [net87] nmatrix_row_out_n_15_ d_lut_sky130_fd_sc_hd__buf_2
A_1621_ [_0794_ _0986_ _0078_] net57 d_lut_sky130_fd_sc_hd__o21a_2
A_1552_ [_0801_ _1010_ _1012_] net77 d_lut_sky130_fd_sc_hd__a21o_1
A_1483_ [_0896_ _0961_] _0962_ d_lut_sky130_fd_sc_hd__or2_1
A_2104_ [_0265_ _0417_ _0418_] _0419_ d_lut_sky130_fd_sc_hd__and3_1
A_2035_ [_0344_ _0352_] _0353_ d_lut_sky130_fd_sc_hd__or2_1
A_1819_ [_0207_ _0208_] _0209_ d_lut_sky130_fd_sc_hd__nor2_1
A_1604_ [_0788_ _0977_ _0770_] _0068_ d_lut_sky130_fd_sc_hd__a21oi_1
A_1535_ [_0998_ _0999_ _0847_] _1000_ d_lut_sky130_fd_sc_hd__mux2_1
A_1466_ [_0951_] net209 d_lut_sky130_fd_sc_hd__clkbuf_2
A_1397_ [_0707_] _0906_ d_lut_sky130_fd_sc_hd__buf_4
A_2018_ [cnb.shift_register_r\_12\_] _0336_ d_lut_sky130_fd_sc_hd__inv_2
A_1320_ [_0750_ _0789_] _0858_ d_lut_sky130_fd_sc_hd__nand2_1
A_1251_ [_0801_ _0804_ _0810_] net194 d_lut_sky130_fd_sc_hd__a21boi_2
A_1182_ [_0750_ _0740_ _0753_] _0754_ d_lut_sky130_fd_sc_hd__o21ai_1
Aoutput200 [net200] pmatrix_row_out_n_13_ d_lut_sky130_fd_sc_hd__buf_2
Aoutput244 [net244] result_out_0_ d_lut_sky130_fd_sc_hd__buf_2
Aoutput222 [net222] pmatrix_rowoff_out_n_4_ d_lut_sky130_fd_sc_hd__buf_2
Aoutput211 [net211] pmatrix_row_out_n_9_ d_lut_sky130_fd_sc_hd__buf_2
Aoutput233 [net233] pmatrix_rowon_out_n_14_ d_lut_sky130_fd_sc_hd__buf_2
Aoutput255 [net255] result_out_5_ d_lut_sky130_fd_sc_hd__buf_2
A_1518_ [_0985_ _0986_ _0847_] _0987_ d_lut_sky130_fd_sc_hd__mux2_1
A_1449_ [_0918_ net226 _0725_] _0939_ d_lut_sky130_fd_sc_hd__mux2_1
A_2421_ osr.next_result_w\_17\_ net264 NULL ~net272 osr.result_r\_17\_ NULL ddflop
A_2352_ [cnb.result_out\_10\_ _0632_ _0271_] _0633_ d_lut_sky130_fd_sc_hd__mux2_1
A_2283_ [_0575_ _0577_ _0579_] _0045_ d_lut_sky130_fd_sc_hd__o21ai_1
A_1303_ [_0738_ _0848_] _0849_ d_lut_sky130_fd_sc_hd__nand2_1
A_1234_ [_0768_ _0772_] _0796_ d_lut_sky130_fd_sc_hd__and2_1
A_1165_ [_0714_ _0716_ _0715_] _0739_ d_lut_sky130_fd_sc_hd__o21a_2
A_1096_ [_0684_ _0686_] cnb.next_average_sum_w\_1\_ d_lut_sky130_fd_sc_hd__nor2_1
A_1998_ [_0265_ _0316_ net14] _0317_ d_lut_sky130_fd_sc_hd__a21o_1
A_1921_ [_0683_] _0265_ d_lut_sky130_fd_sc_hd__clkbuf_4
A_1852_ [_0642_ _0236_] _0237_ d_lut_sky130_fd_sc_hd__or2_2
A_1783_ [cnb.result_out\_4\_ osr.result_r\_4\_] _0178_ d_lut_sky130_fd_sc_hd__xnor2_1
A_2404_ osr.next_result_w\_0\_ net267 NULL ~net276 osr.result_r\_0\_ NULL ddflop
A_2335_ [cnb.result_out\_5\_ _0620_ _0272_] _0621_ d_lut_sky130_fd_sc_hd__mux2_1
A_2266_ [_0648_ _0563_ _0564_ _0565_] _0566_ d_lut_sky130_fd_sc_hd__a31o_1
A_2197_ [_0489_ _0506_] _0507_ d_lut_sky130_fd_sc_hd__xor2_1
A_1217_ [_0769_ _0779_ net9] _0783_ d_lut_sky130_fd_sc_hd__a21o_1
A_1148_ [_0718_ _0723_] _0724_ d_lut_sky130_fd_sc_hd__nand2_1
A_1079_ [cnb.average_counter_r\_2\_ cnb.average_counter_r\_1\_ cnb.average_counter_r\_0\_] _0671_ d_lut_sky130_fd_sc_hd__and3_1
A_2120_ [_0409_ _0410_ _0411_ _0433_] _0434_ d_lut_sky130_fd_sc_hd__o211a_1
A_2051_ [net129 _0316_] _0368_ d_lut_sky130_fd_sc_hd__nand2_1
A_1904_ [net230 net198] net214 d_lut_sky130_fd_sc_hd__nand2_1
A_1835_ [osr.result_r\_11\_ _0222_] _0223_ d_lut_sky130_fd_sc_hd__nor2_1
A_1766_ [osr.result_r\_4\_ _0162_] _0163_ d_lut_sky130_fd_sc_hd__xnor2_1
A_1697_ [_0701_ _0911_ _0896_] net126 d_lut_sky130_fd_sc_hd__a21oi_4
A_2318_ [cnb.result_out\_2\_ _0606_ _0272_] _0607_ d_lut_sky130_fd_sc_hd__mux2_1
A_2249_ [_0646_ _0644_] _0551_ d_lut_sky130_fd_sc_hd__nand2_2
Aoutput22 [net22] nmatrix_col_out_14_ d_lut_sky130_fd_sc_hd__buf_2
Aoutput11 [net11] conv_finished_osr_out d_lut_sky130_fd_sc_hd__buf_2
Aoutput33 [net33] nmatrix_col_out_24_ d_lut_sky130_fd_sc_hd__buf_2
Aoutput66 [net66] nmatrix_col_out_n_25_ d_lut_sky130_fd_sc_hd__buf_2
Aoutput55 [net55] nmatrix_col_out_n_15_ d_lut_sky130_fd_sc_hd__buf_2
Aoutput44 [net44] nmatrix_col_out_5_ d_lut_sky130_fd_sc_hd__buf_2
Aoutput99 [net99] nmatrix_rowoff_out_n_11_ d_lut_sky130_fd_sc_hd__buf_2
Aoutput88 [net88] nmatrix_row_out_n_1_ d_lut_sky130_fd_sc_hd__buf_2
Aoutput77 [net77] nmatrix_col_out_n_6_ d_lut_sky130_fd_sc_hd__buf_2
A_1620_ [_0751_ _0068_ _0077_ _0805_] _0078_ d_lut_sky130_fd_sc_hd__a211o_1
A_1551_ [_0874_ _1011_] _1012_ d_lut_sky130_fd_sc_hd__nor2_1
A_1482_ [_0909_ _0946_ _0947_ _0921_] _0961_ d_lut_sky130_fd_sc_hd__o22a_1
A_2103_ [_0412_ _0416_] _0418_ d_lut_sky130_fd_sc_hd__or2_1
A_2034_ [_0300_ _0345_ _0350_ _0351_] _0352_ d_lut_sky130_fd_sc_hd__a2bb2o_1
A_1818_ [_0206_ _0181_ _0188_ _0189_] _0208_ d_lut_sky130_fd_sc_hd__a31oi_2
A_1749_ [_0148_] net87 d_lut_sky130_fd_sc_hd__clkbuf_1
A_1603_ [_0807_ _0982_ _0770_] _0067_ d_lut_sky130_fd_sc_hd__o21ai_1
A_1534_ [_0755_ _0972_ _0756_] _0999_ d_lut_sky130_fd_sc_hd__a21oi_1
A_1465_ [_0726_ _0906_ _0950_] _0951_ d_lut_sky130_fd_sc_hd__or3_1
A_1396_ [cnb.data_register_r\_11\_ _0905_] net124 d_lut_sky130_fd_sc_hd__nor2_4
A_2017_ [_0295_ _0296_ _0314_] _0335_ d_lut_sky130_fd_sc_hd__or3_1
A_1250_ [_0805_ _0809_] _0810_ d_lut_sky130_fd_sc_hd__nand2_1
A_1181_ [_0751_ _0752_] _0753_ d_lut_sky130_fd_sc_hd__nand2_1
Aoutput201 [net201] pmatrix_row_out_n_14_ d_lut_sky130_fd_sc_hd__buf_2
Aoutput212 [net212] pmatrix_rowoff_out_n_0_ d_lut_sky130_fd_sc_hd__buf_2
Aoutput223 [net223] pmatrix_rowoff_out_n_5_ d_lut_sky130_fd_sc_hd__buf_2
Aoutput234 [net234] pmatrix_rowon_out_n_15_ d_lut_sky130_fd_sc_hd__buf_2
Aoutput256 [net256] result_out_6_ d_lut_sky130_fd_sc_hd__buf_2
Aoutput245 [net245] result_out_10_ d_lut_sky130_fd_sc_hd__buf_2
A_1517_ [_0735_ _0977_] _0986_ d_lut_sky130_fd_sc_hd__nor2_1
A_1448_ [_0916_] net226 d_lut_sky130_fd_sc_hd__inv_2
A_1379_ [net188] net156 d_lut_sky130_fd_sc_hd__clkinv_2
A_2420_ osr.next_result_w\_16\_ net270 NULL ~net272 osr.result_r\_16\_ NULL ddflop
A_2351_ [_0919_ _0630_] _0632_ d_lut_sky130_fd_sc_hd__xnor2_1
A_2282_ [cnb.result_out\_6\_ _0530_ _0578_] _0579_ d_lut_sky130_fd_sc_hd__a21oi_1
A_1302_ [_0809_ _0846_ _0847_] _0848_ d_lut_sky130_fd_sc_hd__mux2_1
A_1233_ [_0788_ _0739_ _0721_] _0795_ d_lut_sky130_fd_sc_hd__a21o_1
A_1164_ [_0737_] _0738_ d_lut_sky130_fd_sc_hd__clkbuf_4
A_1095_ [cnb.average_sum_r\_1\_ _0685_] _0686_ d_lut_sky130_fd_sc_hd__xor2_1
A_1997_ [_0301_ _0310_ _0315_] _0316_ d_lut_sky130_fd_sc_hd__nand3b_2
Afanout280 [net283] net280 d_lut_sky130_fd_sc_hd__clkbuf_4
A_1920_ [net119 net87] net103 d_lut_sky130_fd_sc_hd__nand2_1
A_1851_ [osr.result_r\_14\_ _0235_] _0236_ d_lut_sky130_fd_sc_hd__xnor2_1
A_1782_ [cnb.result_out\_5\_ osr.result_r\_5\_] _0177_ d_lut_sky130_fd_sc_hd__xnor2_1
A_2403_ _0034_ clknet_2_2__leaf_clk_dig_in ~net279 NULL cnb.data_register_r\_11\_ NULL ddflop
A_2334_ [_0618_ _0619_] _0620_ d_lut_sky130_fd_sc_hd__nand2_1
A_2265_ [_0648_ _0288_ osr.next_result_w\_5\_] _0565_ d_lut_sky130_fd_sc_hd__and3b_1
A_2196_ [_0412_ _0500_ _0502_ _0499_ _0505_] _0506_ d_lut_sky130_fd_sc_hd__o221a_1
A_1216_ [_0755_] _0782_ d_lut_sky130_fd_sc_hd__clkbuf_4
A_1147_ [_0722_] _0723_ d_lut_sky130_fd_sc_hd__buf_2
A_1078_ [_0667_ _0668_ _0669_ cnb.average_counter_r\_2\_ cnb.average_counter_r\_3\_] _0670_ d_lut_sky130_fd_sc_hd__a2111o_1
A_2050_ [_0333_ _0362_] _0367_ d_lut_sky130_fd_sc_hd__xnor2_1
A_1903_ [net229 net197] net213 d_lut_sky130_fd_sc_hd__nand2_1
A_1834_ [_0218_ _0219_ _0221_] _0222_ d_lut_sky130_fd_sc_hd__or3_2
A_1765_ [_0158_ _0161_] _0162_ d_lut_sky130_fd_sc_hd__nand2_1
A_1696_ [_0919_ _0119_ _0896_] net125 d_lut_sky130_fd_sc_hd__a21oi_2
A_2317_ [net131 _0604_] _0606_ d_lut_sky130_fd_sc_hd__xnor2_1
A_2248_ [cnb.result_out\_0\_ _0530_ _0547_ _0549_ _0550_] _0039_ d_lut_sky130_fd_sc_hd__a221o_1
A_2179_ [_0333_ _0435_ _0488_] _0489_ d_lut_sky130_fd_sc_hd__mux2_1
Aoutput34 [net34] nmatrix_col_out_25_ d_lut_sky130_fd_sc_hd__buf_2
Aoutput12 [net264] conv_finished_out d_lut_sky130_fd_sc_hd__buf_2
Aoutput23 [net23] nmatrix_col_out_15_ d_lut_sky130_fd_sc_hd__buf_2
Aoutput67 [net67] nmatrix_col_out_n_26_ d_lut_sky130_fd_sc_hd__buf_2
Aoutput45 [net45] nmatrix_col_out_6_ d_lut_sky130_fd_sc_hd__buf_2
Aoutput56 [net56] nmatrix_col_out_n_16_ d_lut_sky130_fd_sc_hd__buf_2
Aoutput78 [net78] nmatrix_col_out_n_7_ d_lut_sky130_fd_sc_hd__buf_2
Aoutput89 [net89] nmatrix_row_out_n_2_ d_lut_sky130_fd_sc_hd__buf_2
A_1550_ [_0807_ _0975_ _0808_] _1011_ d_lut_sky130_fd_sc_hd__o21a_1
A_1481_ [_0960_] net199 d_lut_sky130_fd_sc_hd__clkbuf_2
A_2102_ [_0412_ _0416_] _0417_ d_lut_sky130_fd_sc_hd__nand2_1
A_2033_ [_0297_ _0298_ _0304_] _0351_ d_lut_sky130_fd_sc_hd__nor3_1
A_1817_ [_0181_ _0188_ _0206_] _0207_ d_lut_sky130_fd_sc_hd__a21oi_1
A_1748_ [_0906_ _0915_ _0967_] _0148_ d_lut_sky130_fd_sc_hd__or3b_1
A_1679_ [net70] net38 d_lut_sky130_fd_sc_hd__clkinv_2
A_1602_ [_0735_ _0975_] _0066_ d_lut_sky130_fd_sc_hd__or2_1
A_1533_ [_0782_ _0975_ _0773_] _0998_ d_lut_sky130_fd_sc_hd__o21ai_1
A_1464_ [_0911_ _0915_ _0699_] _0950_ d_lut_sky130_fd_sc_hd__mux2_1
A_1395_ [_0904_ _0706_] _0905_ d_lut_sky130_fd_sc_hd__nor2_1
A_2016_ [net14 _0333_] _0334_ d_lut_sky130_fd_sc_hd__xnor2_1
A_1180_ [_0723_ _0743_] _0752_ d_lut_sky130_fd_sc_hd__nand2_1
Aoutput202 [net202] pmatrix_row_out_n_15_ d_lut_sky130_fd_sc_hd__buf_2
Aoutput224 [net224] pmatrix_rowoff_out_n_6_ d_lut_sky130_fd_sc_hd__buf_2
Aoutput213 [net213] pmatrix_rowoff_out_n_10_ d_lut_sky130_fd_sc_hd__buf_2
Aoutput235 [net235] pmatrix_rowon_out_n_1_ d_lut_sky130_fd_sc_hd__buf_2
Aoutput257 [net257] result_out_7_ d_lut_sky130_fd_sc_hd__buf_2
Aoutput246 [net246] result_out_11_ d_lut_sky130_fd_sc_hd__buf_2
A_1516_ [_0723_ _0982_] _0985_ d_lut_sky130_fd_sc_hd__nand2_1
A_1447_ [_0938_] net203 d_lut_sky130_fd_sc_hd__buf_2
A_1378_ [_0852_ _0887_ _0891_] net188 d_lut_sky130_fd_sc_hd__o21ai_4
A_2350_ [cnb.result_out\_9\_ _0272_ _0631_] _0060_ d_lut_sky130_fd_sc_hd__o21a_1
A_2281_ [net245 _0536_ _0531_] _0578_ d_lut_sky130_fd_sc_hd__and3_1
A_1301_ [_0746_] _0847_ d_lut_sky130_fd_sc_hd__buf_4
A_1232_ [_0737_] _0794_ d_lut_sky130_fd_sc_hd__buf_4
A_1163_ [_0728_] _0737_ d_lut_sky130_fd_sc_hd__clkbuf_4
A_1094_ [net1 cnb.average_sum_r\_0\_] _0685_ d_lut_sky130_fd_sc_hd__nand2_1
A_1996_ [_0307_ _0313_ _0314_ _0300_] _0315_ d_lut_sky130_fd_sc_hd__o22a_1
Afanout270 [net12] net270 d_lut_sky130_fd_sc_hd__clkbuf_2
Afanout281 [net282] net281 d_lut_sky130_fd_sc_hd__clkbuf_4
A_1850_ [_0222_ _0227_ _0234_] _0235_ d_lut_sky130_fd_sc_hd__o21a_1
A_1781_ [cnb.result_out\_6\_ osr.result_r\_6\_] _0176_ d_lut_sky130_fd_sc_hd__xnor2_1
A_2402_ _0033_ clknet_2_3__leaf_clk_dig_in NULL ~net282 cnb.data_register_r\_10\_ NULL ddflop
A_2333_ [_0782_ _0614_] _0619_ d_lut_sky130_fd_sc_hd__nand2_1
A_2264_ [_0288_ _0212_] _0564_ d_lut_sky130_fd_sc_hd__nand2_1
A_2195_ [cnb.data_register_r\_8\_ _0478_ _0503_ _0504_] _0505_ d_lut_sky130_fd_sc_hd__o2bb2a_1
A_1215_ [_0780_ _0712_] _0781_ d_lut_sky130_fd_sc_hd__nor2_1
A_1146_ [_0719_ _0720_ _0721_] _0722_ d_lut_sky130_fd_sc_hd__and3_1
A_1077_ [cnb.average_counter_r\_1\_ cnb.average_counter_r\_0\_] _0669_ d_lut_sky130_fd_sc_hd__and2_1
A_1979_ [cnb.shift_register_r\_4\_ cnb.shift_register_r\_5\_ cnb.shift_register_r\_7\_ cnb.shift_register_r\_6\_] _0298_ d_lut_sky130_fd_sc_hd__or4_2
A_1902_ [net243 net211] net227 d_lut_sky130_fd_sc_hd__nand2_1
A_1833_ [osr.result_r\_10\_ cnb.result_out\_10\_ _0220_] _0221_ d_lut_sky130_fd_sc_hd__a21o_1
A_1764_ [osr.result_r\_3\_ _0159_ _0160_] _0161_ d_lut_sky130_fd_sc_hd__a21oi_1
A_1695_ [_0726_ _0898_ _0710_] _0119_ d_lut_sky130_fd_sc_hd__a21o_1
A_2316_ [cnb.result_out\_1\_ _0602_ _0605_] _0052_ d_lut_sky130_fd_sc_hd__a21o_1
A_2247_ [net254 _0640_ _0531_] _0550_ d_lut_sky130_fd_sc_hd__and3_1
A_2178_ [_0346_ _0306_ _0376_] _0488_ d_lut_sky130_fd_sc_hd__or3_1
A_1129_ [cnb.data_register_r\_11\_] _0707_ d_lut_sky130_fd_sc_hd__inv_2
Aoutput13 [net13] enable_loop_out d_lut_sky130_fd_sc_hd__buf_2
Aoutput24 [net24] nmatrix_col_out_16_ d_lut_sky130_fd_sc_hd__buf_2
Aoutput57 [net57] nmatrix_col_out_n_17_ d_lut_sky130_fd_sc_hd__buf_2
Aoutput46 [net46] nmatrix_col_out_7_ d_lut_sky130_fd_sc_hd__buf_2
Aoutput35 [net35] nmatrix_col_out_26_ d_lut_sky130_fd_sc_hd__buf_2
Aoutput79 [net79] nmatrix_col_out_n_8_ d_lut_sky130_fd_sc_hd__buf_2
Aoutput68 [net68] nmatrix_col_out_n_27_ d_lut_sky130_fd_sc_hd__buf_2
A_1480_ [_0895_ _0702_ _0929_ _0936_] _0960_ d_lut_sky130_fd_sc_hd__or4bb_1
A_2101_ [_0398_ _0414_ _0415_] _0416_ d_lut_sky130_fd_sc_hd__a21oi_2
A_2032_ [_0346_ _0303_ _0347_ _0348_ _0349_] _0350_ d_lut_sky130_fd_sc_hd__a311oi_2
A_1816_ [cnb.result_out\_8\_] _0206_ d_lut_sky130_fd_sc_hd__inv_2
A_1747_ [_0933_ _0963_ _0812_ _0899_ _0914_] net86 d_lut_sky130_fd_sc_hd__a2111o_2
A_1678_ [_0874_ _0109_ _0111_] net70 d_lut_sky130_fd_sc_hd__o21a_2
A_1601_ [net53] net21 d_lut_sky130_fd_sc_hd__inv_2
A_1532_ [_0767_ _0996_ _0770_] _0997_ d_lut_sky130_fd_sc_hd__o21a_1
A_1463_ [_0949_] net208 d_lut_sky130_fd_sc_hd__dlymetal6s2s_1
A_1394_ [cnb.data_register_r\_9\_] _0904_ d_lut_sky130_fd_sc_hd__clkinv_2
A_2015_ [_0332_] _0333_ d_lut_sky130_fd_sc_hd__buf_4
Aoutput225 [net225] pmatrix_rowoff_out_n_7_ d_lut_sky130_fd_sc_hd__buf_2
Aoutput203 [net203] pmatrix_row_out_n_1_ d_lut_sky130_fd_sc_hd__buf_2
Aoutput214 [net214] pmatrix_rowoff_out_n_11_ d_lut_sky130_fd_sc_hd__buf_2
Aoutput247 [net247] result_out_12_ d_lut_sky130_fd_sc_hd__buf_2
Aoutput236 [net236] pmatrix_rowon_out_n_2_ d_lut_sky130_fd_sc_hd__buf_2
Aoutput258 [net258] result_out_8_ d_lut_sky130_fd_sc_hd__buf_2
A_1515_ [net60] net28 d_lut_sky130_fd_sc_hd__clkinv_2
A_1446_ [_0909_ _0937_] _0938_ d_lut_sky130_fd_sc_hd__or2_1
A_1377_ [_0724_ _0890_ _0805_] _0891_ d_lut_sky130_fd_sc_hd__a21o_1
A_2280_ [_0288_ _0217_ _0576_ _0644_] _0577_ d_lut_sky130_fd_sc_hd__o211a_1
A_1300_ [_0718_ _0788_ _0808_] _0846_ d_lut_sky130_fd_sc_hd__a21oi_1
A_1231_ [net192] net160 d_lut_sky130_fd_sc_hd__clkinv_2
A_1162_ [net164] net132 d_lut_sky130_fd_sc_hd__clkinv_2
A_1093_ [_0683_] _0684_ d_lut_sky130_fd_sc_hd__clkbuf_4
A_1995_ [cnb.shift_register_r\_8\_ cnb.shift_register_r\_9\_ cnb.shift_register_r\_10\_ cnb.shift_register_r\_11\_] _0314_ d_lut_sky130_fd_sc_hd__or4b_1
A_1429_ [_0701_ _0708_ _0914_] _0926_ d_lut_sky130_fd_sc_hd__a21oi_1
Afanout282 [net283] net282 d_lut_sky130_fd_sc_hd__clkbuf_4
Afanout271 [net260] net271 d_lut_sky130_fd_sc_hd__buf_6
A_1780_ [_0175_] osr.next_result_w\_6\_ d_lut_sky130_fd_sc_hd__clkinv_2
A_2401_ _0032_ clknet_2_2__leaf_clk_dig_in NULL ~net279 cnb.data_register_r\_9\_ NULL ddflop
A_2332_ [_0617_] _0618_ d_lut_sky130_fd_sc_hd__clkbuf_2
A_2263_ [_0288_ osr.next_result_w\_7\_] _0563_ d_lut_sky130_fd_sc_hd__or2_1
A_2194_ [cnb.data_register_r\_8\_ _0478_ _0483_] _0504_ d_lut_sky130_fd_sc_hd__o21ai_1
A_1214_ [_0779_] _0780_ d_lut_sky130_fd_sc_hd__buf_2
A_1145_ [cnb.data_register_r\_7\_] _0721_ d_lut_sky130_fd_sc_hd__buf_2
A_1076_ [cnb.average_counter_r\_1\_ cnb.average_counter_r\_0\_] _0668_ d_lut_sky130_fd_sc_hd__or2_1
A_1978_ [cnb.shift_register_r\_2\_ cnb.shift_register_r\_3\_ cnb.is_holding_result_w net271] _0297_ d_lut_sky130_fd_sc_hd__or4_2
A_1901_ [net241 net209] net225 d_lut_sky130_fd_sc_hd__nand2_1
A_1832_ [osr.result_r\_10\_ cnb.result_out\_10\_ osr.result_r\_9\_ cnb.result_out\_9\_] _0220_ d_lut_sky130_fd_sc_hd__o211a_1
A_1763_ [cnb.result_out\_3\_ osr.result_r\_2\_ cnb.result_out\_2\_] _0160_ d_lut_sky130_fd_sc_hd__and3_1
A_1694_ [_0918_ net108] net123 d_lut_sky130_fd_sc_hd__nand2_2
A_2315_ [_0603_ _0604_ _0602_] _0605_ d_lut_sky130_fd_sc_hd__a21oi_1
A_2246_ [_0644_ _0548_] _0549_ d_lut_sky130_fd_sc_hd__nand2_1
A_2177_ [_0487_] _0031_ d_lut_sky130_fd_sc_hd__clkbuf_1
A_1128_ [cnb.data_register_r\_10\_] _0706_ d_lut_sky130_fd_sc_hd__clkinv_2
A_1059_ [osr.sample_count_r\_0\_ _0651_ osr.sample_count_r\_2\_] _0652_ d_lut_sky130_fd_sc_hd__o21a_1
Aoutput25 [net25] nmatrix_col_out_17_ d_lut_sky130_fd_sc_hd__buf_2
Aoutput14 [net14] nmatrix_bincap_out_n_0_ d_lut_sky130_fd_sc_hd__buf_2
Aoutput36 [net36] nmatrix_col_out_27_ d_lut_sky130_fd_sc_hd__buf_2
Aoutput58 [net58] nmatrix_col_out_n_18_ d_lut_sky130_fd_sc_hd__buf_2
Aoutput47 [net47] nmatrix_col_out_8_ d_lut_sky130_fd_sc_hd__buf_2
Aoutput69 [net69] nmatrix_col_out_n_28_ d_lut_sky130_fd_sc_hd__buf_2
A_2100_ [_0383_ _0375_ _0414_ _0398_] _0415_ d_lut_sky130_fd_sc_hd__a211oi_1