* XSpice netlist created from SPICE and liberty sources by spi2xspice.py
* NGSPICE file created from adc_core_digital.ext - technology: sky130A
.subckt adc_core_digital a_VPWR a_VGND a_clk_dig_in a_comparator_in a_config_1_in_0_ a_config_1_in_1_ a_config_1_in_2_ a_config_1_in_3_ a_config_1_in_4_ a_config_1_in_5_ a_config_1_in_6_ a_config_1_in_7_ a_config_1_in_8_ a_config_1_in_9_ a_config_1_in_10_ a_config_1_in_11_ a_config_1_in_12_ a_config_1_in_13_ a_config_1_in_14_ a_config_1_in_15_ a_config_2_in_0_ a_config_2_in_1_ a_config_2_in_2_ a_config_2_in_3_ a_config_2_in_4_ a_config_2_in_5_ a_config_2_in_6_ a_config_2_in_7_ a_config_2_in_8_ a_config_2_in_9_ a_config_2_in_10_ a_config_2_in_11_ a_config_2_in_12_ a_config_2_in_13_ a_config_2_in_14_ a_config_2_in_15_ a_conv_finished_out a_enable_loop_out a_nmatrix_bincap_out_n_0_ a_nmatrix_bincap_out_n_1_ a_nmatrix_bincap_out_n_2_ a_nmatrix_c0_out_n a_nmatrix_col_out_n_0_ a_nmatrix_col_out_n_1_ a_nmatrix_col_out_n_2_ a_nmatrix_col_out_n_3_ a_nmatrix_col_out_n_4_ a_nmatrix_col_out_n_5_ a_nmatrix_col_out_n_6_ a_nmatrix_col_out_n_7_ a_nmatrix_col_out_n_8_ a_nmatrix_col_out_n_9_ a_nmatrix_col_out_n_10_ a_nmatrix_col_out_n_11_ a_nmatrix_col_out_n_12_ a_nmatrix_col_out_n_13_ a_nmatrix_col_out_n_14_ a_nmatrix_col_out_n_15_ a_nmatrix_col_out_n_16_ a_nmatrix_col_out_n_17_ a_nmatrix_col_out_n_18_ a_nmatrix_col_out_n_19_  a_nmatrix_col_out_n_20_ a_nmatrix_col_out_n_21_ a_nmatrix_col_out_n_22_ a_nmatrix_col_out_n_23_ a_nmatrix_col_out_n_24_ a_nmatrix_col_out_n_25_ a_nmatrix_col_out_n_26_ a_nmatrix_col_out_n_27_ a_nmatrix_col_out_n_28_ a_nmatrix_col_out_n_29_  a_nmatrix_col_out_n_30_ a_nmatrix_col_out_n_31_ a_nmatrix_row_out_n_0_ a_nmatrix_row_out_n_1_ a_nmatrix_row_out_n_2_ a_nmatrix_row_out_n_3_ a_nmatrix_row_out_n_4_ a_nmatrix_row_out_n_5_ a_nmatrix_row_out_n_6_ a_nmatrix_row_out_n_7_ a_nmatrix_row_out_n_8_ a_nmatrix_row_out_n_9_  a_nmatrix_row_out_n_10_ a_nmatrix_row_out_n_11_ a_nmatrix_row_out_n_12_ a_nmatrix_row_out_n_13_ a_nmatrix_row_out_n_14_ a_nmatrix_row_out_n_15_ a_nmatrix_rowon_out_n_0_ a_nmatrix_rowon_out_n_1_ a_nmatrix_rowon_out_n_2_ a_nmatrix_rowon_out_n_3_ a_nmatrix_rowon_out_n_4_ a_nmatrix_rowon_out_n_5_ a_nmatrix_rowon_out_n_6_ a_nmatrix_rowon_out_n_7_ a_nmatrix_rowon_out_n_8_ a_nmatrix_rowon_out_n_9_ a_nmatrix_rowon_out_n_10_ a_nmatrix_rowon_out_n_11_ a_nmatrix_rowon_out_n_12_ a_nmatrix_rowon_out_n_13_ a_nmatrix_rowon_out_n_14_ a_nmatrix_rowon_out_n_15_ a_pmatrix_bincap_out_n_0_ a_pmatrix_bincap_out_n_1_ a_pmatrix_bincap_out_n_2_ a_pmatrix_c0_out_n a_pmatrix_col_out_n_0_ a_pmatrix_col_out_n_1_ a_pmatrix_col_out_n_2_ a_pmatrix_col_out_n_3_ a_pmatrix_col_out_n_4_ a_pmatrix_col_out_n_5_ a_pmatrix_col_out_n_6_ a_pmatrix_col_out_n_7_ a_pmatrix_col_out_n_8_ a_pmatrix_col_out_n_9_ a_pmatrix_col_out_n_10_ a_pmatrix_col_out_n_11_ a_pmatrix_col_out_n_12_ a_pmatrix_col_out_n_13_ a_pmatrix_col_out_n_14_ a_pmatrix_col_out_n_15_ a_pmatrix_col_out_n_16_ a_pmatrix_col_out_n_17_ a_pmatrix_col_out_n_18_ a_pmatrix_col_out_n_19_  a_pmatrix_col_out_n_20_ a_pmatrix_col_out_n_21_ a_pmatrix_col_out_n_22_ a_pmatrix_col_out_n_23_ a_pmatrix_col_out_n_24_ a_pmatrix_col_out_n_25_ a_pmatrix_col_out_n_26_ a_pmatrix_col_out_n_27_ a_pmatrix_col_out_n_28_ a_pmatrix_col_out_n_29_  a_pmatrix_col_out_n_30_ a_pmatrix_col_out_n_31_ a_pmatrix_row_out_n_0_ a_pmatrix_row_out_n_1_ a_pmatrix_row_out_n_2_ a_pmatrix_row_out_n_3_ a_pmatrix_row_out_n_4_ a_pmatrix_row_out_n_5_ a_pmatrix_row_out_n_6_ a_pmatrix_row_out_n_7_ a_pmatrix_row_out_n_8_ a_pmatrix_row_out_n_9_ a_pmatrix_row_out_n_10_ a_pmatrix_row_out_n_11_ a_pmatrix_row_out_n_12_ a_pmatrix_row_out_n_13_ a_pmatrix_row_out_n_14_ a_pmatrix_row_out_n_15_ a_pmatrix_rowon_out_n_0_ a_pmatrix_rowon_out_n_1_ a_pmatrix_rowon_out_n_2_ a_pmatrix_rowon_out_n_3_ a_pmatrix_rowon_out_n_4_ a_pmatrix_rowon_out_n_5_ a_pmatrix_rowon_out_n_6_ a_pmatrix_rowon_out_n_7_ a_pmatrix_rowon_out_n_8_ a_pmatrix_rowon_out_n_9_ a_pmatrix_rowon_out_n_10_ a_pmatrix_rowon_out_n_11_ a_pmatrix_rowon_out_n_12_ a_pmatrix_rowon_out_n_13_ a_pmatrix_rowon_out_n_14_ a_pmatrix_rowon_out_n_15_ a_result_out_0_ a_result_out_1_ a_result_out_2_ a_result_out_3_ a_result_out_4_ a_result_out_5_ a_result_out_6_ a_result_out_7_ a_result_out_8_ a_result_out_9_ a_result_out_10_ a_result_out_11_ a_result_out_12_ a_result_out_13_ a_result_out_14_ a_result_out_15_ a_rst_n a_sample_matrix_out a_sample_matrix_out_n a_sample_switch_out a_sample_switch_out_n a_nmatrix_rowoff_out_n_0_ a_nmatrix_rowoff_out_n_1_ a_nmatrix_rowoff_out_n_2_ a_nmatrix_rowoff_out_n_3_ a_nmatrix_rowoff_out_n_4_ a_nmatrix_rowoff_out_n_5_ a_nmatrix_rowoff_out_n_6_ a_nmatrix_rowoff_out_n_7_ a_nmatrix_rowoff_out_n_8_ a_nmatrix_rowoff_out_n_9_ a_nmatrix_rowoff_out_n_10_ a_nmatrix_rowoff_out_n_11_ a_nmatrix_rowoff_out_n_12_ a_nmatrix_rowoff_out_n_13_ a_nmatrix_rowoff_out_n_14_ a_nmatrix_rowoff_out_n_15_ a_nmatrix_col_out_0_ a_nmatrix_col_out_1_ a_nmatrix_col_out_2_ a_nmatrix_col_out_3_ a_nmatrix_col_out_4_ a_nmatrix_col_out_5_ a_nmatrix_col_out_6_ a_nmatrix_col_out_7_ a_nmatrix_col_out_8_ a_nmatrix_col_out_9_ a_nmatrix_col_out_10_ a_nmatrix_col_out_11_ a_nmatrix_col_out_12_ a_nmatrix_col_out_13_ a_nmatrix_col_out_14_ a_nmatrix_col_out_15_ a_nmatrix_col_out_16_ a_nmatrix_col_out_17_ a_nmatrix_col_out_18_ a_nmatrix_col_out_19_  a_nmatrix_col_out_20_ a_nmatrix_col_out_21_ a_nmatrix_col_out_22_ a_nmatrix_col_out_23_ a_nmatrix_col_out_24_ a_nmatrix_col_out_25_ a_nmatrix_col_out_26_ a_nmatrix_col_out_27_ a_nmatrix_col_out_28_ a_nmatrix_col_out_29_  a_nmatrix_col_out_30_ a_nmatrix_col_out_31_ a_pmatrix_rowoff_out_n_0_ a_pmatrix_rowoff_out_n_1_ a_pmatrix_rowoff_out_n_2_ a_pmatrix_rowoff_out_n_3_ a_pmatrix_rowoff_out_n_4_ a_pmatrix_rowoff_out_n_5_ a_pmatrix_rowoff_out_n_6_ a_pmatrix_rowoff_out_n_7_ a_pmatrix_rowoff_out_n_8_ a_pmatrix_rowoff_out_n_9_ a_pmatrix_rowoff_out_n_10_ a_pmatrix_rowoff_out_n_11_ a_pmatrix_rowoff_out_n_12_ a_pmatrix_rowoff_out_n_13_ a_pmatrix_rowoff_out_n_14_ a_pmatrix_rowoff_out_n_15_ a_pmatrix_col_out_0_ a_pmatrix_col_out_1_ a_pmatrix_col_out_2_ a_pmatrix_col_out_3_ a_pmatrix_col_out_4_ a_pmatrix_col_out_5_ a_pmatrix_col_out_6_ a_pmatrix_col_out_7_ a_pmatrix_col_out_8_ a_pmatrix_col_out_9_ a_pmatrix_col_out_10_ a_pmatrix_col_out_11_ a_pmatrix_col_out_12_ a_pmatrix_col_out_13_ a_pmatrix_col_out_14_ a_pmatrix_col_out_15_ a_pmatrix_col_out_16_ a_pmatrix_col_out_17_ a_pmatrix_col_out_18_ a_pmatrix_col_out_19_  a_pmatrix_col_out_20_ a_pmatrix_col_out_21_ a_pmatrix_col_out_22_ a_pmatrix_col_out_23_ a_pmatrix_col_out_24_ a_pmatrix_col_out_25_ a_pmatrix_col_out_26_ a_pmatrix_col_out_27_ a_pmatrix_col_out_28_ a_pmatrix_col_out_29_  a_pmatrix_col_out_30_ a_pmatrix_col_out_31_ a_conv_finished_osr_out 
A_2106_ [net235 net203] net219 d_lut_sky130_fd_sc_hd__nand2_1
A_2037_ [cnb.result_out\_11\_ _0375_] _0376_ d_lut_sky130_fd_sc_hd__xnor2_1
A_1270_ [_0732_ _0750_ cnb.data_register_r\_7\_] _0751_ d_lut_sky130_fd_sc_hd__a21bo_1
A_1606_ [_0963_ _1002_] _0073_ d_lut_sky130_fd_sc_hd__or2_1
A_1537_ [_0747_ _0980_ _0992_] _0993_ d_lut_sky130_fd_sc_hd__a21oi_4
A_1468_ [_0932_ _0934_ _0936_] _0937_ d_lut_sky130_fd_sc_hd__a21oi_1
A_1399_ [_0718_ _0869_ _0870_ _0720_] _0871_ d_lut_sky130_fd_sc_hd__a22o_1
A_2371_ _0021_ clknet_2_3__leaf_clk_dig_in NULL ~net281 cnb.shift_register_r\_15\_ NULL ddflop
A_1322_ [_0781_ _0799_ _0800_] _0801_ d_lut_sky130_fd_sc_hd__a21oi_2
A_1253_ [_0594_ _0595_ _0602_ _0734_] _0735_ d_lut_sky130_fd_sc_hd__or4_1
A_1184_ [_0604_ _0670_ cnb.data_register_r\_2\_] _0671_ d_lut_sky130_fd_sc_hd__o21ba_1
Aoutput253 [net253] result_out_3_ d_lut_sky130_fd_sc_hd__buf_2
Aoutput220 [net220] pmatrix_rowoff_out_n_2_ d_lut_sky130_fd_sc_hd__buf_2
Aoutput231 [net231] pmatrix_rowon_out_n_12_ d_lut_sky130_fd_sc_hd__buf_2
Aoutput242 [net242] pmatrix_rowon_out_n_8_ d_lut_sky130_fd_sc_hd__buf_2
A_1940_ [_0125_ _0133_ _0149_ net226] _0296_ d_lut_sky130_fd_sc_hd__o22a_1
A_1871_ [_0948_ _0929_ _0204_ _0207_ _0868_] _0259_ d_lut_sky130_fd_sc_hd__o32a_1
A_2423_ cnb.next_average_sum_w\_2\_ clknet_2_3__leaf_clk_dig_in NULL ~net282 cnb.average_sum_r\_2\_ NULL ddflop
A_2354_ osr.next_sample_count_w\_7\_ net266 NULL ~net272 osr.sample_count_r\_7\_ NULL ddflop
A_1305_ [cnb.data_register_r\_7\_ _0732_ _0750_] _0785_ d_lut_sky130_fd_sc_hd__and3_1
A_2285_ [_0458_ osr.next_result_w\_10\_ _0447_ _0499_] _0500_ d_lut_sky130_fd_sc_hd__a31o_1
A_1236_ [_0717_ _0718_] _0719_ d_lut_sky130_fd_sc_hd__nor2_1
A_1167_ [net130] net15 d_lut_sky130_fd_sc_hd__clkinv_2
A_1098_ [cnb.data_register_r\_0\_] _0592_ d_lut_sky130_fd_sc_hd__inv_2
A_2070_ [osr.sample_count_r\_0\_ _0551_] osr.next_sample_count_w\_0\_ d_lut_sky130_fd_sc_hd__nand2_1
A_1021_ [net6 net5 net7] _0526_ d_lut_sky130_fd_sc_hd__nor3_2
A_1923_ [_0288_] net118 d_lut_sky130_fd_sc_hd__dlymetal6s2s_1
A_1854_ [_0921_ _0193_ _0246_ _0247_ _0248_] net58 d_lut_sky130_fd_sc_hd__a221oi_4
A_1785_ [_0105_ _0932_ _0908_] _0194_ d_lut_sky130_fd_sc_hd__and3_1
A_2406_ _0036_ net271 NULL ~net278 net248 NULL ddflop
A_2337_ cnb.next_data_register_w\_7\_ clknet_2_1__leaf_clk_dig_in NULL ~net280 cnb.data_register_r\_7\_ NULL ddflop
A_2268_ [cnb.result_out\_6\_ osr.result_r\_6\_ _0485_] _0486_ d_lut_sky130_fd_sc_hd__or3_1
A_1219_ [cnb.data_register_r\_1\_ _0699_ _0701_ _0625_ _0702_] _0703_ d_lut_sky130_fd_sc_hd__o221ai_4
A_2199_ [_0597_ cnb.shift_register_r\_10\_ _0572_] _0434_ d_lut_sky130_fd_sc_hd__mux2_1
A_1570_ [_0998_ _0961_ _1018_ _1019_ _1020_] net168 d_lut_sky130_fd_sc_hd__a221o_1
A_2122_ [_0071_ _0172_ _0183_ _0175_ _0186_] net39 d_lut_sky130_fd_sc_hd__a221o_2
A_2053_ [_0373_ _0377_ _0387_ _0378_] _0388_ d_lut_sky130_fd_sc_hd__o211a_1
A_1906_ [_0276_] net223 d_lut_sky130_fd_sc_hd__clkbuf_2
A_1837_ [_1004_ _0171_ _0943_ _0973_] _0237_ d_lut_sky130_fd_sc_hd__o211a_1
A_1768_ [_0052_ _0963_ _0179_] _0180_ d_lut_sky130_fd_sc_hd__and3_1
A_1699_ [_0830_ _0792_] _0129_ d_lut_sky130_fd_sc_hd__nand2_1
Aoutput31 [net31] nmatrix_col_out_22_ d_lut_sky130_fd_sc_hd__buf_2
Aoutput20 [net20] nmatrix_col_out_12_ d_lut_sky130_fd_sc_hd__buf_2
Aoutput42 [net42] nmatrix_col_out_3_ d_lut_sky130_fd_sc_hd__buf_2
Aoutput53 [net53] nmatrix_col_out_n_13_ d_lut_sky130_fd_sc_hd__buf_2
Aoutput75 [net75] nmatrix_col_out_n_4_ d_lut_sky130_fd_sc_hd__buf_2
Aoutput64 [net64] nmatrix_col_out_n_23_ d_lut_sky130_fd_sc_hd__buf_2
Aoutput97 [net97] nmatrix_rowoff_out_n_0_ d_lut_sky130_fd_sc_hd__buf_2
Aoutput86 [net86] nmatrix_row_out_n_14_ d_lut_sky130_fd_sc_hd__buf_2
A_1622_ [_0054_ _0956_ _1013_ _0051_ _0080_] net150 d_lut_sky130_fd_sc_hd__a221o_2
A_1553_ [_1000_ _0968_ _0918_] _1008_ d_lut_sky130_fd_sc_hd__a21oi_1
A_1484_ [_0874_ _0906_ _0947_ _0723_ _0948_] _0949_ d_lut_sky130_fd_sc_hd__a221o_1
A_2105_ [_0987_ _0942_ _0088_] net155 d_lut_sky130_fd_sc_hd__a21oi_4
A_2036_ [_0349_ _0374_] _0375_ d_lut_sky130_fd_sc_hd__nor2_1
A_1605_ [net144] net176 d_lut_sky130_fd_sc_hd__clkinv_2
A_1536_ [_0902_ _0991_] _0992_ d_lut_sky130_fd_sc_hd__or2_1
A_1467_ [_0935_] _0936_ d_lut_sky130_fd_sc_hd__clkbuf_4
A_1398_ [cnb.data_register_r\_4\_ _0716_] _0870_ d_lut_sky130_fd_sc_hd__nor2_1
A_2019_ [cnb.result_out\_8\_ _0343_ osr.result_r\_8\_] _0360_ d_lut_sky130_fd_sc_hd__o21a_1
A_2370_ _0020_ clknet_2_3__leaf_clk_dig_in NULL ~net281 cnb.shift_register_r\_14\_ NULL ddflop
A_1321_ [_0700_ _0791_] _0800_ d_lut_sky130_fd_sc_hd__nor2_1
A_1252_ [cnb.shift_register_r\_16\_ _0597_ cnb.data_register_r\_5\_] _0734_ d_lut_sky130_fd_sc_hd__or3b_1
A_1183_ [cnb.shift_register_r\_15\_ _0606_ _0667_ _0668_ _0669_] _0670_ d_lut_sky130_fd_sc_hd__o311a_2
Aoutput210 [net210] pmatrix_row_out_n_8_ d_lut_sky130_fd_sc_hd__buf_2
Aoutput221 [net221] pmatrix_rowoff_out_n_3_ d_lut_sky130_fd_sc_hd__buf_2
Aoutput243 [net243] pmatrix_rowon_out_n_9_ d_lut_sky130_fd_sc_hd__buf_2
Aoutput232 [net232] pmatrix_rowon_out_n_13_ d_lut_sky130_fd_sc_hd__buf_2
Aoutput254 [net254] result_out_4_ d_lut_sky130_fd_sc_hd__buf_2
A_1519_ [_0932_ _0909_ _0936_] _0979_ d_lut_sky130_fd_sc_hd__a21oi_1
Aclkbuf_2_0__f_clk_dig_in [clknet_0_clk_dig_in] clknet_2_0__leaf_clk_dig_in d_lut_sky130_fd_sc_hd__clkbuf_16
A_1870_ [_0910_ _1000_] _0258_ d_lut_sky130_fd_sc_hd__nor2_1
A_2422_ cnb.next_average_sum_w\_1\_ clknet_2_2__leaf_clk_dig_in NULL ~net282 cnb.average_sum_r\_1\_ NULL ddflop
A_2353_ osr.next_sample_count_w\_6\_ net265 NULL ~net272 osr.sample_count_r\_6\_ NULL ddflop
A_1304_ [_0703_ _0705_ _0716_ _0764_] _0784_ d_lut_sky130_fd_sc_hd__a211oi_4
A_2284_ [cnb.result_out\_8\_ _0526_ _0551_ net247] _0499_ d_lut_sky130_fd_sc_hd__a22o_1
A_1235_ [_0697_ _0703_ _0705_] _0718_ d_lut_sky130_fd_sc_hd__and3_1
A_1166_ [_0641_ _0655_] net130 d_lut_sky130_fd_sc_hd__xnor2_4
A_1097_ [_0590_ _0591_ _0573_] cnb.next_average_counter_w\_4\_ d_lut_sky130_fd_sc_hd__o21a_1
A_1999_ [osr.result_r\_8\_ _0343_] _0345_ d_lut_sky130_fd_sc_hd__and2_1
A_1922_ [_0092_ _0287_] _0288_ d_lut_sky130_fd_sc_hd__or2b_1
A_1853_ [_0963_ _0221_] _0248_ d_lut_sky130_fd_sc_hd__and2_1
A_1784_ [_0723_ _0189_ _0936_] _0193_ d_lut_sky130_fd_sc_hd__o21bai_4
A_2405_ _0035_ net268 NULL ~net274 net247 NULL ddflop
A_2336_ cnb.next_data_register_w\_6\_ clknet_2_1__leaf_clk_dig_in NULL ~net280 cnb.data_register_r\_6\_ NULL ddflop
A_2267_ [_0330_ _0483_ osr.result_r\_7\_] _0485_ d_lut_sky130_fd_sc_hd__mux2_1
A_1218_ [_0666_ _0671_ _0684_ _0685_] _0702_ d_lut_sky130_fd_sc_hd__o2bb2a_2
A_2198_ [_0433_] _0014_ d_lut_sky130_fd_sc_hd__clkbuf_1
A_1149_ [_0594_ _0595_ _0596_] _0639_ d_lut_sky130_fd_sc_hd__or3_1
A_2121_ [_0998_ _0172_ _0174_ _1019_ _0180_] net28 d_lut_sky130_fd_sc_hd__a221o_2
A_2052_ [osr.result_r\_12\_ osr.result_r\_13\_ osr.result_r\_14\_] _0387_ d_lut_sky130_fd_sc_hd__and3_1
A_1905_ [_0834_ _0115_] _0276_ d_lut_sky130_fd_sc_hd__or2_1
A_1836_ [_0793_ _0924_ _0168_ _0235_ _1001_] _0236_ d_lut_sky130_fd_sc_hd__o311a_1
A_1767_ [_0977_ _0177_ _0178_] _0179_ d_lut_sky130_fd_sc_hd__and3_2
A_1698_ [_0832_ _0861_ _0107_ _0918_ _0803_] net203 d_lut_sky130_fd_sc_hd__a2111o_4
A_2319_ [cnb.result_out\_8\_ cnb.next_data_register_w\_8\_ _0426_] _0522_ d_lut_sky130_fd_sc_hd__mux2_1
Aoutput32 [net32] nmatrix_col_out_23_ d_lut_sky130_fd_sc_hd__buf_2
Aoutput43 [net43] nmatrix_col_out_4_ d_lut_sky130_fd_sc_hd__buf_2
Aoutput21 [net21] nmatrix_col_out_13_ d_lut_sky130_fd_sc_hd__buf_2
Aoutput76 [net76] nmatrix_col_out_n_5_ d_lut_sky130_fd_sc_hd__buf_2
Aoutput65 [net65] nmatrix_col_out_n_24_ d_lut_sky130_fd_sc_hd__buf_2
Aoutput54 [net54] nmatrix_col_out_n_14_ d_lut_sky130_fd_sc_hd__buf_2
Aoutput87 [net87] nmatrix_row_out_n_15_ d_lut_sky130_fd_sc_hd__buf_2
Aoutput98 [net98] nmatrix_rowoff_out_n_10_ d_lut_sky130_fd_sc_hd__buf_2
A_1621_ [_0929_ _0961_] _0080_ d_lut_sky130_fd_sc_hd__nor2_1
A_1552_ [_1004_ _0990_ _0899_ _1006_] _1007_ d_lut_sky130_fd_sc_hd__o31a_2
A_1483_ [_0747_ _0901_] _0948_ d_lut_sky130_fd_sc_hd__or2_2
A_2104_ [_0216_ _0956_ _0085_ _0086_] net153 d_lut_sky130_fd_sc_hd__a211o_1
A_2035_ [osr.result_r\_11\_ _0373_] _0374_ d_lut_sky130_fd_sc_hd__xnor2_1
A_1819_ [_0074_ _0219_ _0220_ _0215_ _0222_] net80 d_lut_sky130_fd_sc_hd__o221a_2
A_1604_ [_0071_ _1013_ _0072_] net144 d_lut_sky130_fd_sc_hd__a21o_4
A_1535_ [_0990_ _0914_] _0991_ d_lut_sky130_fd_sc_hd__nor2_1
A_1466_ [_0747_ _0902_] _0935_ d_lut_sky130_fd_sc_hd__nand2_1
A_1397_ [cnb.data_register_r\_4\_ _0741_] _0869_ d_lut_sky130_fd_sc_hd__nor2_1
A_2018_ [_0330_ _0359_] osr.next_result_w\_7\_ d_lut_sky130_fd_sc_hd__xnor2_2
A_1320_ [_0700_ _0791_] _0799_ d_lut_sky130_fd_sc_hd__nand2_1
A_1251_ [_0620_ _0730_ _0731_ _0732_] _0733_ d_lut_sky130_fd_sc_hd__a22o_1
A_1182_ [_0606_ cnb.shift_register_r\_12\_ _0608_ cnb.shift_register_r\_15\_] _0669_ d_lut_sky130_fd_sc_hd__or4b_2
Aoutput200 [net200] pmatrix_row_out_n_13_ d_lut_sky130_fd_sc_hd__buf_2
Aoutput244 [net244] result_out_0_ d_lut_sky130_fd_sc_hd__buf_2
Aoutput222 [net222] pmatrix_rowoff_out_n_4_ d_lut_sky130_fd_sc_hd__buf_2
Aoutput211 [net211] pmatrix_row_out_n_9_ d_lut_sky130_fd_sc_hd__buf_2
Aoutput233 [net233] pmatrix_rowon_out_n_14_ d_lut_sky130_fd_sc_hd__buf_2
Aoutput255 [net255] result_out_5_ d_lut_sky130_fd_sc_hd__buf_2
A_1518_ [_0899_ _0977_] _0978_ d_lut_sky130_fd_sc_hd__nand2_1
A_1449_ [_0912_ _0917_ _0918_] _0919_ d_lut_sky130_fd_sc_hd__mux2_1
A_2421_ cnb.next_average_sum_w\_0\_ clknet_2_2__leaf_clk_dig_in NULL ~net284 cnb.average_sum_r\_0\_ NULL ddflop
A_2352_ osr.next_sample_count_w\_5\_ net265 NULL ~net273 osr.sample_count_r\_5\_ NULL ddflop
A_2283_ [osr.next_result_w\_12\_ osr.next_result_w\_14\_ osr.osr_mode_r\_0\_] _0498_ d_lut_sky130_fd_sc_hd__mux2_1
A_1303_ [cnb.data_register_r\_8\_ _0782_] _0783_ d_lut_sky130_fd_sc_hd__xnor2_4
A_1234_ [cnb.data_register_r\_4\_] _0717_ d_lut_sky130_fd_sc_hd__inv_2
A_1165_ [cnb.data_register_r\_1\_ _0654_] _0655_ d_lut_sky130_fd_sc_hd__xnor2_2
A_1096_ [_0589_ cnb.average_counter_r\_3\_ _0559_] _0591_ d_lut_sky130_fd_sc_hd__and3_1
A_1998_ [osr.result_r\_8\_ _0343_] _0344_ d_lut_sky130_fd_sc_hd__nor2_1
A_1921_ [_0781_ _0798_ _0838_ _0282_ _0286_] _0287_ d_lut_sky130_fd_sc_hd__a311o_1
A_1852_ [_1000_ _0928_] _0247_ d_lut_sky130_fd_sc_hd__nor2_2
A_1783_ [_1019_ _0188_ _0190_ _0964_ _0192_] net74 d_lut_sky130_fd_sc_hd__a221o_2
A_2404_ _0034_ net270 NULL ~net273 net246 NULL ddflop
A_2335_ cnb.next_data_register_w\_5\_ clknet_2_1__leaf_clk_dig_in NULL ~net280 cnb.data_register_r\_5\_ NULL ddflop
A_2266_ [_0483_ _0330_ osr.result_r\_7\_] _0484_ d_lut_sky130_fd_sc_hd__mux2_1
A_2197_ [cnb.shift_register_r\_8\_ _0597_ _0575_] _0433_ d_lut_sky130_fd_sc_hd__mux2_1
A_1217_ [_0647_ _0649_ _0700_ _0678_] _0701_ d_lut_sky130_fd_sc_hd__a31oi_2
A_1148_ [_0627_] net13 d_lut_sky130_fd_sc_hd__clkinv_2
A_1079_ [cnb.average_sum_r\_2\_ _0578_] _0580_ d_lut_sky130_fd_sc_hd__and2_1
A_2120_ [_1019_ _0166_ _0169_] net17 d_lut_sky130_fd_sc_hd__o21a_1
A_2051_ [_0385_ _0386_ _0349_] osr.next_result_w\_14\_ d_lut_sky130_fd_sc_hd__a21oi_2
A_1904_ [_0116_ _0121_] net108 d_lut_sky130_fd_sc_hd__nand2_2
A_1835_ [_0830_ _0792_ _0875_ _0167_] _0235_ d_lut_sky130_fd_sc_hd__or4_1
A_1766_ [_0830_ _0693_] _0178_ d_lut_sky130_fd_sc_hd__nand2_1
A_1697_ [_0128_] net234 d_lut_sky130_fd_sc_hd__clkbuf_2
A_2318_ [_0521_] _0046_ d_lut_sky130_fd_sc_hd__clkbuf_1
A_2249_ [cnb.result_out\_1\_ _0446_ _0468_ _0470_] _0028_ d_lut_sky130_fd_sc_hd__a211o_1
Aoutput22 [net22] nmatrix_col_out_14_ d_lut_sky130_fd_sc_hd__buf_2
Aoutput11 [net11] conv_finished_osr_out d_lut_sky130_fd_sc_hd__buf_2
Aoutput33 [net33] nmatrix_col_out_24_ d_lut_sky130_fd_sc_hd__buf_2
Aoutput66 [net66] nmatrix_col_out_n_25_ d_lut_sky130_fd_sc_hd__buf_2
Aoutput55 [net55] nmatrix_col_out_n_15_ d_lut_sky130_fd_sc_hd__buf_2
Aoutput44 [net44] nmatrix_col_out_5_ d_lut_sky130_fd_sc_hd__buf_2
Aoutput99 [net99] nmatrix_rowoff_out_n_11_ d_lut_sky130_fd_sc_hd__buf_2
Aoutput88 [net88] nmatrix_row_out_n_1_ d_lut_sky130_fd_sc_hd__buf_2
Aoutput77 [net77] nmatrix_col_out_n_6_ d_lut_sky130_fd_sc_hd__buf_2
A_1620_ [_0074_ _0940_ _0079_] net181 d_lut_sky130_fd_sc_hd__o21a_1
A_1551_ [_0902_ _1005_] _1006_ d_lut_sky130_fd_sc_hd__nor2_2
A_1482_ [_0877_ _0906_] _0947_ d_lut_sky130_fd_sc_hd__nand2_2
A_2103_ [_0074_ _0940_ _0079_] net149 d_lut_sky130_fd_sc_hd__o21ai_4
A_2034_ [cnb.result_out\_10\_ _0368_ _0372_] _0373_ d_lut_sky130_fd_sc_hd__a21bo_1
A_1818_ [_0216_ _0221_] _0222_ d_lut_sky130_fd_sc_hd__nand2_1
A_1749_ [_0852_ _0850_] net119 d_lut_sky130_fd_sc_hd__nand2_2
A_1603_ [_0928_ _1007_ _0984_ _0931_] _0072_ d_lut_sky130_fd_sc_hd__a2bb2o_1
A_1534_ [_0747_] _0990_ d_lut_sky130_fd_sc_hd__inv_2
A_1465_ [_0897_ _0933_] _0934_ d_lut_sky130_fd_sc_hd__or2_1
A_1396_ [_0867_] _0868_ d_lut_sky130_fd_sc_hd__buf_4
A_2017_ [_0349_ _0357_ _0358_] _0359_ d_lut_sky130_fd_sc_hd__or3_1
A_1250_ [_0594_ _0595_ _0601_ _0602_] _0732_ d_lut_sky130_fd_sc_hd__nor4_2
A_1181_ [cnb.shift_register_r\_15\_ cnb.shift_register_r\_12\_ _0608_ _0606_] _0668_ d_lut_sky130_fd_sc_hd__or4b_1
Aoutput201 [net201] pmatrix_row_out_n_14_ d_lut_sky130_fd_sc_hd__buf_2
Aoutput212 [net212] pmatrix_rowoff_out_n_0_ d_lut_sky130_fd_sc_hd__buf_2
Aoutput223 [net223] pmatrix_rowoff_out_n_5_ d_lut_sky130_fd_sc_hd__buf_2
Aoutput234 [net234] pmatrix_rowon_out_n_15_ d_lut_sky130_fd_sc_hd__buf_2
Aoutput256 [net256] result_out_6_ d_lut_sky130_fd_sc_hd__buf_2
Aoutput245 [net245] result_out_10_ d_lut_sky130_fd_sc_hd__buf_2
A_1517_ [_0707_ _0904_] _0977_ d_lut_sky130_fd_sc_hd__nor2_1
A_1448_ [_0866_] _0918_ d_lut_sky130_fd_sc_hd__clkbuf_4
A_1379_ [_0781_ _0782_] _0853_ d_lut_sky130_fd_sc_hd__nor2_1
A_2420_ _0050_ clknet_2_0__leaf_clk_dig_in NULL ~net279 cnb.result_out\_11\_ NULL ddflop
A_2351_ osr.next_sample_count_w\_4\_ net265 NULL ~net273 osr.sample_count_r\_4\_ NULL ddflop
A_2282_ [_0458_ _0494_ _0497_] _0034_ d_lut_sky130_fd_sc_hd__a21o_1
A_1302_ [_0607_ _0604_ _0652_] _0782_ d_lut_sky130_fd_sc_hd__nor3_4
A_1233_ [_0715_] _0716_ d_lut_sky130_fd_sc_hd__clkbuf_4
A_1164_ [_0647_ _0649_ _0653_] _0654_ d_lut_sky130_fd_sc_hd__and3_1
A_1095_ [cnb.average_counter_r\_3\_ _0559_ _0589_] _0590_ d_lut_sky130_fd_sc_hd__a21oi_1
A_1997_ [_0316_ _0317_ _0337_ _0342_] _0343_ d_lut_sky130_fd_sc_hd__a31o_1
Afanout280 [net285] net280 d_lut_sky130_fd_sc_hd__clkbuf_4
A_1920_ [_0283_ _0285_ _0830_] _0286_ d_lut_sky130_fd_sc_hd__o21a_1
A_1851_ [_0875_ _0924_ _0182_] _0246_ d_lut_sky130_fd_sc_hd__mux2_2
A_1782_ [_0171_ _0191_ _0920_ _0948_] _0192_ d_lut_sky130_fd_sc_hd__a2bb2o_1
A_2403_ _0033_ net271 NULL ~net276 net245 NULL ddflop
A_2334_ cnb.next_data_register_w\_4\_ clknet_2_1__leaf_clk_dig_in NULL ~net286 cnb.data_register_r\_4\_ NULL ddflop
A_2265_ [_0330_ _0306_] _0483_ d_lut_sky130_fd_sc_hd__nand2_1
A_2196_ [_0432_] _0013_ d_lut_sky130_fd_sc_hd__clkbuf_1
A_1216_ [_0607_ _0604_ _0652_] _0700_ d_lut_sky130_fd_sc_hd__or3_2
A_1147_ [_0627_ _0638_] cnb.next_data_register_w\_0\_ d_lut_sky130_fd_sc_hd__nor2_1
A_1078_ [_0575_ _0579_] cnb.next_average_sum_w\_2\_ d_lut_sky130_fd_sc_hd__nor2_1
A_2050_ [osr.result_r\_14\_ _0381_ osr.result_r\_13\_] _0386_ d_lut_sky130_fd_sc_hd__nand3b_1
A_1903_ [_0096_ _0126_ net239] net128 d_lut_sky130_fd_sc_hd__a21oi_2
A_1834_ [_0071_ _0206_ _0234_] net52 d_lut_sky130_fd_sc_hd__a21oi_4
A_1765_ [_0854_ _0857_ _0860_ _0176_] _0177_ d_lut_sky130_fd_sc_hd__a211o_1
A_1696_ [_0123_ _0125_] _0128_ d_lut_sky130_fd_sc_hd__or2_1
A_2317_ [_0330_ cnb.next_data_register_w\_7\_ _0426_] _0521_ d_lut_sky130_fd_sc_hd__mux2_1
A_2248_ [osr.next_result_w\_9\_ _0444_ _0462_ osr.next_result_w\_7\_ _0469_] _0470_ d_lut_sky130_fd_sc_hd__o221a_1
A_2179_ [net7 _0532_ _0307_] _0424_ d_lut_sky130_fd_sc_hd__mux2_1
Aoutput34 [net34] nmatrix_col_out_25_ d_lut_sky130_fd_sc_hd__buf_2
Aoutput12 [net265] conv_finished_out d_lut_sky130_fd_sc_hd__buf_2
Aoutput23 [net23] nmatrix_col_out_15_ d_lut_sky130_fd_sc_hd__buf_2
Aoutput67 [net67] nmatrix_col_out_n_26_ d_lut_sky130_fd_sc_hd__buf_2
Aoutput45 [net45] nmatrix_col_out_6_ d_lut_sky130_fd_sc_hd__buf_2
Aoutput56 [net56] nmatrix_col_out_n_16_ d_lut_sky130_fd_sc_hd__buf_2
Aoutput78 [net78] nmatrix_col_out_n_7_ d_lut_sky130_fd_sc_hd__buf_2
Aoutput89 [net89] nmatrix_row_out_n_2_ d_lut_sky130_fd_sc_hd__buf_2
A_1550_ [_0923_] _1005_ d_lut_sky130_fd_sc_hd__inv_2
A_1481_ [_0931_] _0946_ d_lut_sky130_fd_sc_hd__buf_8
A_2102_ [_0071_ _0996_ _1015_ _0998_ _0075_] net146 d_lut_sky130_fd_sc_hd__a221o_1
A_2033_ [cnb.result_out\_10\_ _0365_ _0367_ osr.result_r\_10\_] _0372_ d_lut_sky130_fd_sc_hd__o31ai_1
A_1817_ [_0973_ _0165_ _0170_ _0977_ _0922_] _0221_ d_lut_sky130_fd_sc_hd__a311o_1
A_1748_ [_0153_ _0146_ _0094_] net202 d_lut_sky130_fd_sc_hd__o21ai_4
A_1679_ [_0108_ _0850_] _0120_ d_lut_sky130_fd_sc_hd__or2_1
A_1602_ [_0963_] _0071_ d_lut_sky130_fd_sc_hd__clkbuf_4
A_1533_ [_0918_] _0989_ d_lut_sky130_fd_sc_hd__buf_4
A_1464_ [_0693_ _0707_] _0933_ d_lut_sky130_fd_sc_hd__nand2_1
A_1395_ [_0865_ _0866_] _0867_ d_lut_sky130_fd_sc_hd__nand2_1
A_2016_ [osr.result_r\_7\_ _0356_] _0358_ d_lut_sky130_fd_sc_hd__and2_1
A_1180_ [_0607_ _0608_] _0667_ d_lut_sky130_fd_sc_hd__xnor2_1
Aoutput202 [net202] pmatrix_row_out_n_15_ d_lut_sky130_fd_sc_hd__buf_2
Aoutput224 [net224] pmatrix_rowoff_out_n_6_ d_lut_sky130_fd_sc_hd__buf_2
Aoutput213 [net213] pmatrix_rowoff_out_n_10_ d_lut_sky130_fd_sc_hd__buf_2
Aoutput235 [net235] pmatrix_rowon_out_n_1_ d_lut_sky130_fd_sc_hd__buf_2
A_1516_ [_0970_] _0976_ d_lut_sky130_fd_sc_hd__inv_2
Aoutput257 [net257] result_out_7_ d_lut_sky130_fd_sc_hd__buf_2
Aoutput246 [net246] result_out_11_ d_lut_sky130_fd_sc_hd__buf_2
A_1447_ [_0916_] _0917_ d_lut_sky130_fd_sc_hd__inv_2
A_1378_ [_0832_] _0852_ d_lut_sky130_fd_sc_hd__clkbuf_4
A_2350_ osr.next_sample_count_w\_3\_ net265 NULL ~net272 osr.sample_count_r\_3\_ NULL ddflop
A_2281_ [_0330_ _0446_ _0449_ _0495_ _0496_] _0497_ d_lut_sky130_fd_sc_hd__a221o_1
A_1301_ [cnb.data_register_r\_8\_] _0781_ d_lut_sky130_fd_sc_hd__clkbuf_4
A_1232_ [_0709_ _0714_] _0715_ d_lut_sky130_fd_sc_hd__xnor2_2
A_1163_ [_0607_ _0604_ _0652_] _0653_ d_lut_sky130_fd_sc_hd__or3_2
A_1094_ [cnb.average_counter_r\_4\_] _0589_ d_lut_sky130_fd_sc_hd__inv_2
A_1996_ [_0339_ _0333_ _0341_] _0342_ d_lut_sky130_fd_sc_hd__o21ai_1
Afanout270 [net271] net270 d_lut_sky130_fd_sc_hd__buf_2
Afanout281 [net285] net281 d_lut_sky130_fd_sc_hd__clkbuf_2
A_1850_ [_0216_ _0183_ _0244_ _0245_] net57 d_lut_sky130_fd_sc_hd__a22oi_4
A_1781_ [_0920_ _0874_] _0191_ d_lut_sky130_fd_sc_hd__nand2_1
A_2402_ _0032_ net271 NULL ~net276 net259 NULL ddflop
A_2333_ cnb.next_data_register_w\_3\_ clknet_2_0__leaf_clk_dig_in NULL ~net276 cnb.data_register_r\_3\_ NULL ddflop
A_2264_ [_0356_] _0482_ d_lut_sky130_fd_sc_hd__inv_2
A_2195_ [cnb.shift_register_r\_7\_ cnb.shift_register_r\_8\_ _0575_] _0432_ d_lut_sky130_fd_sc_hd__mux2_1
A_1215_ [_0647_ _0649_ _0653_] _0699_ d_lut_sky130_fd_sc_hd__nand3_1
A_1146_ [_0592_ net14 _0637_] _0638_ d_lut_sky130_fd_sc_hd__mux2_1
A_1077_ [cnb.average_sum_r\_2\_ _0578_] _0579_ d_lut_sky130_fd_sc_hd__xnor2_1
A_1979_ [osr.result_r\_6\_ _0325_] _0326_ d_lut_sky130_fd_sc_hd__or2_1
A_1902_ [_0862_ _0275_] net127 d_lut_sky130_fd_sc_hd__nand2_2
A_1833_ [_0233_ _0929_ _0051_ _0210_] _0234_ d_lut_sky130_fd_sc_hd__a2bb2o_1
A_1764_ [_0863_ _0693_] _0176_ d_lut_sky130_fd_sc_hd__nand2_1
A_1695_ [_0097_ _0127_ _0861_] net233 d_lut_sky130_fd_sc_hd__o21bai_4
A_2316_ [_0520_] _0045_ d_lut_sky130_fd_sc_hd__clkbuf_1
A_2247_ [_0534_ osr.next_result_w\_5\_ _0464_ osr.next_result_w\_3\_ _0458_] _0469_ d_lut_sky130_fd_sc_hd__o221a_1
A_2178_ [_0423_] _0004_ d_lut_sky130_fd_sc_hd__clkbuf_1
A_1129_ [_0612_ _0615_ _0592_ _0616_] _0623_ d_lut_sky130_fd_sc_hd__a211oi_1
Aoutput13 [net13] enable_loop_out d_lut_sky130_fd_sc_hd__buf_2
Aoutput24 [net24] nmatrix_col_out_16_ d_lut_sky130_fd_sc_hd__buf_2
Aoutput57 [net57] nmatrix_col_out_n_17_ d_lut_sky130_fd_sc_hd__buf_2
Aoutput46 [net46] nmatrix_col_out_7_ d_lut_sky130_fd_sc_hd__buf_2
Aoutput35 [net35] nmatrix_col_out_26_ d_lut_sky130_fd_sc_hd__buf_2
Aoutput79 [net79] nmatrix_col_out_n_8_ d_lut_sky130_fd_sc_hd__buf_2
Aoutput68 [net68] nmatrix_col_out_n_27_ d_lut_sky130_fd_sc_hd__buf_2
A_1480_ [net157] net189 d_lut_sky130_fd_sc_hd__clkinv_2
A_2101_ [_0057_ _0058_ _0060_] net138 d_lut_sky130_fd_sc_hd__o21ai_2
A_2032_ [cnb.result_out\_10\_ _0371_] osr.next_result_w\_10\_ d_lut_sky130_fd_sc_hd__xnor2_2
A_1816_ [_0830_ _0693_ _0747_ _0167_ _0995_] _0220_ d_lut_sky130_fd_sc_hd__o41a_2
A_1747_ [_0163_] net201 d_lut_sky130_fd_sc_hd__clkbuf_2
A_1678_ [_0849_] _0119_ d_lut_sky130_fd_sc_hd__inv_2
A_1601_ [net142] net174 d_lut_sky130_fd_sc_hd__inv_2
A_1532_ [_0922_ _0925_] _0988_ d_lut_sky130_fd_sc_hd__nand2_1
A_1463_ [_0716_ _0719_ _0720_ _0722_] _0932_ d_lut_sky130_fd_sc_hd__o31ai_4
A_1394_ [_0783_ _0791_] _0866_ d_lut_sky130_fd_sc_hd__xor2_4
A_2015_ [osr.result_r\_7\_ _0356_] _0357_ d_lut_sky130_fd_sc_hd__nor2_1
Aoutput225 [net225] pmatrix_rowoff_out_n_7_ d_lut_sky130_fd_sc_hd__buf_2
Aoutput214 [net214] pmatrix_rowoff_out_n_11_ d_lut_sky130_fd_sc_hd__buf_2
Aoutput203 [net203] pmatrix_row_out_n_1_ d_lut_sky130_fd_sc_hd__buf_2
Aoutput247 [net247] result_out_12_ d_lut_sky130_fd_sc_hd__buf_2
Aoutput236 [net236] pmatrix_rowon_out_n_2_ d_lut_sky130_fd_sc_hd__buf_2
A_1515_ [net160] net192 d_lut_sky130_fd_sc_hd__clkinv_2
Aoutput258 [net258] result_out_8_ d_lut_sky130_fd_sc_hd__buf_2
A_1446_ [_0899_ _0915_] _0916_ d_lut_sky130_fd_sc_hd__nand2_1
A_1377_ [_0851_] net228 d_lut_sky130_fd_sc_hd__buf_2
A_2280_ [net246 _0459_ _0549_] _0496_ d_lut_sky130_fd_sc_hd__and3_1
A_1300_ [_0780_] cnb.next_data_register_w\_7\_ d_lut_sky130_fd_sc_hd__clkbuf_1
A_1231_ [_0605_ _0670_ _0711_ _0713_] _0714_ d_lut_sky130_fd_sc_hd__o22a_1
A_1162_ [_0650_ _0651_ cnb.shift_register_r\_15\_] _0652_ d_lut_sky130_fd_sc_hd__mux2_2
A_1093_ [_0575_ _0588_] cnb.next_average_counter_w\_3\_ d_lut_sky130_fd_sc_hd__nor2_1
A_1995_ [_0330_ osr.result_r\_7\_ _0340_] _0341_ d_lut_sky130_fd_sc_hd__o21ai_1
A_1429_ [_0759_ _0765_ _0774_ _0776_] _0901_ d_lut_sky130_fd_sc_hd__nand4_2
Afanout271 [net12] net271 d_lut_sky130_fd_sc_hd__dlymetal6s2s_1
Afanout282 [net285] net282 d_lut_sky130_fd_sc_hd__clkbuf_4
A_1780_ [_1000_ _0904_ _0189_] _0190_ d_lut_sky130_fd_sc_hd__or3_4
A_2401_ _0031_ net269 NULL ~net278 net258 NULL ddflop
A_2332_ cnb.next_data_register_w\_2\_ clknet_2_1__leaf_clk_dig_in NULL ~net278 cnb.data_register_r\_2\_ NULL ddflop
A_2263_ [net259 _0459_ _0442_] _0481_ d_lut_sky130_fd_sc_hd__and3_1
A_2194_ [_0431_] _0012_ d_lut_sky130_fd_sc_hd__clkbuf_1
A_1214_ [cnb.data_register_r\_4\_ _0697_] _0698_ d_lut_sky130_fd_sc_hd__xnor2_4
A_1145_ [_0636_] _0637_ d_lut_sky130_fd_sc_hd__clkbuf_4
A_1076_ [cnb.average_sum_r\_0\_ net1 cnb.average_sum_r\_1\_] _0578_ d_lut_sky130_fd_sc_hd__and3_1
A_1978_ [_0321_ _0323_ _0324_] _0325_ d_lut_sky130_fd_sc_hd__o21bai_1
A_1901_ [_0118_ _0123_ _0852_] _0275_ d_lut_sky130_fd_sc_hd__a21o_1
A_1832_ [_0693_ _0707_ _0902_ _0167_ _0232_] _0233_ d_lut_sky130_fd_sc_hd__a41o_1
A_1763_ [_0943_] _0175_ d_lut_sky130_fd_sc_hd__buf_6
A_1694_ [_0106_ _0114_] _0127_ d_lut_sky130_fd_sc_hd__nor2_1
A_2315_ [cnb.result_out\_6\_ cnb.next_data_register_w\_6\_ _0426_] _0520_ d_lut_sky130_fd_sc_hd__mux2_1
A_2246_ [net255 _0459_ _0442_] _0468_ d_lut_sky130_fd_sc_hd__and3_1
A_2177_ [net6 osr.osr_mode_r\_1\_ _0307_] _0423_ d_lut_sky130_fd_sc_hd__mux2_1
A_1128_ [_0599_ _0600_ _0605_ _0609_] _0622_ d_lut_sky130_fd_sc_hd__o22ai_1