* XSpice netlist created from SPICE and liberty sources by spi2xspice.py
*SPICE netlist created from verilog structural netlist module adc_core_digital by vlog2Spice (qflow)
.subckt adc_core_digital a_VPWR a_VGND a_clk_dig_in a_comparator_in 
+ a_config_1_in_0_ a_config_1_in_1_ a_config_1_in_2_ a_config_1_in_3_ a_config_1_in_4_ a_config_1_in_5_ a_config_1_in_6_ a_config_1_in_7_ a_config_1_in_8_ a_config_1_in_9_ a_config_1_in_10_ a_config_1_in_11_ a_config_1_in_12_ a_config_1_in_13_ a_config_1_in_14_ a_config_1_in_15_  
+ a_config_2_in_0_ a_config_2_in_1_ a_config_2_in_2_ a_config_2_in_3_ a_config_2_in_4_ a_config_2_in_5_ a_config_2_in_6_ a_config_2_in_7_ a_config_2_in_8_ a_config_2_in_9_ a_config_2_in_10_ a_config_2_in_11_ a_config_2_in_12_ a_config_2_in_13_ a_config_2_in_14_ a_config_2_in_15_ 
+ a_conv_finished_out a_enable_loop_out 
+ a_nmatrix_bincap_out_n_0_ a_nmatrix_bincap_out_n_1_ a_nmatrix_bincap_out_n_2_ 
+ a_nmatrix_c0_out_n 
+ a_nmatrix_col_out_n_0_ a_nmatrix_col_out_n_1_ a_nmatrix_col_out_n_2_ a_nmatrix_col_out_n_3_ a_nmatrix_col_out_n_4_ a_nmatrix_col_out_n_5_ a_nmatrix_col_out_n_6_ a_nmatrix_col_out_n_7_ a_nmatrix_col_out_n_8_ a_nmatrix_col_out_n_9_ a_nmatrix_col_out_n_10_ a_nmatrix_col_out_n_11_ a_nmatrix_col_out_n_12_ a_nmatrix_col_out_n_13_ a_nmatrix_col_out_n_14_ a_nmatrix_col_out_n_15_ a_nmatrix_col_out_n_16_ a_nmatrix_col_out_n_17_ a_nmatrix_col_out_n_18_ a_nmatrix_col_out_n_19_ a_nmatrix_col_out_n_20_ a_nmatrix_col_out_n_21_ a_nmatrix_col_out_n_22_ a_nmatrix_col_out_n_23_ a_nmatrix_col_out_n_24_ a_nmatrix_col_out_n_25_ a_nmatrix_col_out_n_26_ a_nmatrix_col_out_n_27_ a_nmatrix_col_out_n_28_ a_nmatrix_col_out_n_29_ a_nmatrix_col_out_n_30_ a_nmatrix_col_out_n_31_ 
+ a_nmatrix_row_out_n_0_ a_nmatrix_row_out_n_1_ a_nmatrix_row_out_n_2_ a_nmatrix_row_out_n_3_ a_nmatrix_row_out_n_4_ a_nmatrix_row_out_n_5_ a_nmatrix_row_out_n_6_ a_nmatrix_row_out_n_7_ a_nmatrix_row_out_n_8_ a_nmatrix_row_out_n_9_ a_nmatrix_row_out_n_10_ a_nmatrix_row_out_n_11_ a_nmatrix_row_out_n_12_ a_nmatrix_row_out_n_13_ a_nmatrix_row_out_n_14_ a_nmatrix_row_out_n_15_ 
+ a_nmatrix_rowon_out_n_0_ a_nmatrix_rowon_out_n_1_ a_nmatrix_rowon_out_n_2_ a_nmatrix_rowon_out_n_3_ a_nmatrix_rowon_out_n_4_ a_nmatrix_rowon_out_n_5_ a_nmatrix_rowon_out_n_6_ a_nmatrix_rowon_out_n_7_ a_nmatrix_rowon_out_n_8_ a_nmatrix_rowon_out_n_9_ a_nmatrix_rowon_out_n_10_ a_nmatrix_rowon_out_n_11_ a_nmatrix_rowon_out_n_12_ a_nmatrix_rowon_out_n_13_ a_nmatrix_rowon_out_n_14_ a_nmatrix_rowon_out_n_15_ 
+ a_pmatrix_bincap_out_n_0_ a_pmatrix_bincap_out_n_1_ a_pmatrix_bincap_out_n_2_ 
+ a_pmatrix_c0_out_n 
+ a_pmatrix_col_out_n_0_ a_pmatrix_col_out_n_1_ a_pmatrix_col_out_n_2_ a_pmatrix_col_out_n_3_ a_pmatrix_col_out_n_4_ a_pmatrix_col_out_n_5_ a_pmatrix_col_out_n_6_ a_pmatrix_col_out_n_7_ a_pmatrix_col_out_n_8_ a_pmatrix_col_out_n_9_ a_pmatrix_col_out_n_10_ a_pmatrix_col_out_n_11_ a_pmatrix_col_out_n_12_ a_pmatrix_col_out_n_13_ a_pmatrix_col_out_n_14_ a_pmatrix_col_out_n_15_ a_pmatrix_col_out_n_16_ a_pmatrix_col_out_n_17_ a_pmatrix_col_out_n_18_ a_pmatrix_col_out_n_19_ a_pmatrix_col_out_n_20_ a_pmatrix_col_out_n_21_ a_pmatrix_col_out_n_22_ a_pmatrix_col_out_n_23_ a_pmatrix_col_out_n_24_ a_pmatrix_col_out_n_25_ a_pmatrix_col_out_n_26_ a_pmatrix_col_out_n_27_ a_pmatrix_col_out_n_28_ a_pmatrix_col_out_n_29_ a_pmatrix_col_out_n_30_ a_pmatrix_col_out_n_31_ 
+ a_pmatrix_row_out_n_0_ a_pmatrix_row_out_n_1_ a_pmatrix_row_out_n_2_ a_pmatrix_row_out_n_3_ a_pmatrix_row_out_n_4_ a_pmatrix_row_out_n_5_ a_pmatrix_row_out_n_6_ a_pmatrix_row_out_n_7_ a_pmatrix_row_out_n_8_ a_pmatrix_row_out_n_9_ a_pmatrix_row_out_n_10_ a_pmatrix_row_out_n_11_ a_pmatrix_row_out_n_12_ a_pmatrix_row_out_n_13_ a_pmatrix_row_out_n_14_ a_pmatrix_row_out_n_15_ 
+ a_pmatrix_rowon_out_n_0_ a_pmatrix_rowon_out_n_1_ a_pmatrix_rowon_out_n_2_ a_pmatrix_rowon_out_n_3_ a_pmatrix_rowon_out_n_4_ a_pmatrix_rowon_out_n_5_ a_pmatrix_rowon_out_n_6_ a_pmatrix_rowon_out_n_7_ a_pmatrix_rowon_out_n_8_ a_pmatrix_rowon_out_n_9_ a_pmatrix_rowon_out_n_10_ a_pmatrix_rowon_out_n_11_ a_pmatrix_rowon_out_n_12_ a_pmatrix_rowon_out_n_13_ a_pmatrix_rowon_out_n_14_ a_pmatrix_rowon_out_n_15_ 
+ a_result_out_0_ a_result_out_1_ a_result_out_2_ a_result_out_3_ a_result_out_4_ a_result_out_5_ a_result_out_6_ a_result_out_7_ a_result_out_8_ a_result_out_9_ a_result_out_10_ a_result_out_11_ a_result_out_12_ a_result_out_13_ a_result_out_14_ a_result_out_15_ 
+ a_rst_n a_sample_matrix_out a_sample_matrix_out_n a_sample_switch_out a_sample_switch_out_n
A_0756_ [config_1_in_4_ config_1_in_3_ config_1_in_5_] _0192_ d_lut_sky130_fd_sc_hd__nor3_2
A_0757_ [\osr.osr_mode_r_1_\] _0193_ d_lut_sky130_fd_sc_hd__inv_2
A_0758_ [\osr.osr_mode_r_0_\] _0194_ d_lut_sky130_fd_sc_hd__buf_1
A_0759_ [_0194_ \osr.osr_mode_r_2_\ \osr.sample_count_r_4_\] _0195_ d_lut_sky130_fd_sc_hd__o21a_2
A_0760_ [\osr.osr_mode_r_0_\] _0196_ d_lut_sky130_fd_sc_hd__inv_2
A_0761_ [_0196_ \osr.osr_mode_r_2_\] _0197_ d_lut_sky130_fd_sc_hd__nor2_2
A_0762_ [_0193_ _0195_ _0197_ \osr.sample_count_r_4_\] _0198_ d_lut_sky130_fd_sc_hd__o22a_2
A_0763_ [_0193_ _0197_] _0199_ d_lut_sky130_fd_sc_hd__nand2_2
A_0764_ [\osr.sample_count_r_4_\ _0199_] _0200_ d_lut_sky130_fd_sc_hd__or2_2
A_0765_ [_0198_ _0200_ \osr.sample_count_r_2_\] _0201_ d_lut_sky130_fd_sc_hd__mux2_2
A_0766_ [\osr.sample_count_r_1_\ \osr.sample_count_r_3_\ \osr.sample_count_r_5_\ \osr.sample_count_r_7_\] _0202_ d_lut_sky130_fd_sc_hd__or4_2
A_0767_ [\osr.sample_count_r_6_\ \osr.sample_count_r_0_\] _0203_ d_lut_sky130_fd_sc_hd__or2b_2
A_0768_ [\osr.sample_count_r_4_\ \osr.sample_count_r_8_\ _0202_ _0203_] _0204_ d_lut_sky130_fd_sc_hd__or4_2
A_0769_ [config_1_in_4_ config_1_in_3_ config_1_in_5_] _0205_ d_lut_sky130_fd_sc_hd__or3_2
A_0770_ [\osr.sample_count_r_2_\ _0204_ _0205_] _0206_ d_lut_sky130_fd_sc_hd__o21ai_2
A_0771_ [\osr.osr_mode_r_1_\] _0207_ d_lut_sky130_fd_sc_hd__buf_1
A_0772_ [\osr.osr_mode_r_2_\] _0208_ d_lut_sky130_fd_sc_hd__inv_2
A_0773_ [_0207_ _0194_ _0208_ \osr.sample_count_r_8_\] _0209_ d_lut_sky130_fd_sc_hd__o31a_2
A_0774_ [\osr.osr_mode_r_1_\ \osr.osr_mode_r_0_\ _0208_ \osr.sample_count_r_8_\] _0210_ d_lut_sky130_fd_sc_hd__or4_2
A_0775_ [_0209_ _0202_ _0210_] _0211_ d_lut_sky130_fd_sc_hd__or3b_2
A_0776_ [\osr.osr_mode_r_0_\ \osr.sample_count_r_6_\ \osr.sample_count_r_4_\] _0212_ d_lut_sky130_fd_sc_hd__or3b_2
A_0777_ [_0194_ \osr.sample_count_r_6_\] _0213_ d_lut_sky130_fd_sc_hd__nand2_2
A_0778_ [_0212_ _0213_ _0193_] _0214_ d_lut_sky130_fd_sc_hd__a21o_2
A_0779_ [_0207_ _0196_ \osr.sample_count_r_6_\ _0214_] _0215_ d_lut_sky130_fd_sc_hd__o31a_2
A_0780_ [_0207_ _0194_ _0203_ _0215_ \osr.sample_count_r_0_\] _0216_ d_lut_sky130_fd_sc_hd__o32a_2
A_0781_ [_0207_ _0194_ \osr.sample_count_r_0_\] _0217_ d_lut_sky130_fd_sc_hd__o21ai_2
A_0782_ [_0207_ _0194_ \osr.sample_count_r_0_\] _0218_ d_lut_sky130_fd_sc_hd__or3_2
A_0783_ [_0217_ _0218_ _0208_ \osr.sample_count_r_6_\] _0219_ d_lut_sky130_fd_sc_hd__a211o_2
A_0784_ [\osr.osr_mode_r_2_\ _0216_ _0219_] _0220_ d_lut_sky130_fd_sc_hd__o21a_2
A_0785_ [_0201_ _0206_ _0211_ _0220_] _0221_ d_lut_sky130_fd_sc_hd__or4_2
A_0786_ [_0221_] _0222_ d_lut_sky130_fd_sc_hd__inv_2
A_0787_ [_0192_ _0222_] _0223_ d_lut_sky130_fd_sc_hd__nor2_2
A_0788_ [_0223_] \osr.is_last_sample\ d_lut_sky130_fd_sc_hd__inv_2
A_0789_ [\cnb.sampled_avg_control_r_0_\ \cnb.sampled_avg_control_r_1_\ \cnb.sampled_avg_control_r_2_\] _0224_ d_lut_sky130_fd_sc_hd__or3b_2
A_0790_ [\cnb.sampled_avg_control_r_1_\ \cnb.sampled_avg_control_r_2_\ \cnb.sampled_avg_control_r_0_\] _0225_ d_lut_sky130_fd_sc_hd__or3b_2
A_0791_ [\cnb.average_counter_r_1_\ _0225_ \cnb.average_counter_r_0_\] _0226_ d_lut_sky130_fd_sc_hd__a21o_2
A_0792_ [\cnb.average_counter_r_1_\ _0225_] _0227_ d_lut_sky130_fd_sc_hd__or2_2
A_0793_ [_0226_ _0227_ \cnb.average_counter_r_3_\ \cnb.average_counter_r_2_\] _0228_ d_lut_sky130_fd_sc_hd__a211o_2
A_0794_ [\cnb.average_counter_r_2_\ \cnb.average_counter_r_1_\ \cnb.average_counter_r_0_\] _0229_ d_lut_sky130_fd_sc_hd__and3_2
A_0795_ [\cnb.sampled_avg_control_r_2_\ \cnb.sampled_avg_control_r_1_\ \cnb.sampled_avg_control_r_0_\] _0230_ d_lut_sky130_fd_sc_hd__nand3b_2
A_0796_ [\cnb.average_counter_r_3_\ _0229_ _0230_ _0224_] _0231_ d_lut_sky130_fd_sc_hd__a22o_2
A_0797_ [\cnb.sampled_avg_control_r_2_\ \cnb.average_counter_r_3_\ _0229_ \cnb.sampled_avg_control_r_1_\] _0232_ d_lut_sky130_fd_sc_hd__or4b_2
A_0798_ [\cnb.average_counter_r_4_\ _0224_ _0231_ _0232_] _0233_ d_lut_sky130_fd_sc_hd__o211a_2
A_0799_ [\cnb.average_counter_r_4_\ _0224_ _0228_ _0233_] _0234_ d_lut_sky130_fd_sc_hd__a22o_2
A_0800_ [\cnb.shift_register_r_4_\ \cnb.shift_register_r_5_\] _0235_ d_lut_sky130_fd_sc_hd__or2_2
A_0801_ [\cnb.shift_register_r_3_\ \cnb.shift_register_r_2_\ _0235_] _0236_ d_lut_sky130_fd_sc_hd__or3_2
A_0802_ [_0234_ _0236_] _0237_ d_lut_sky130_fd_sc_hd__and2b_2
A_0803_ [_0237_] _0238_ d_lut_sky130_fd_sc_hd__buf_1
A_0804_ [\cnb.average_sum_r_0_\ _0238_] _0239_ d_lut_sky130_fd_sc_hd__nand2_2
A_0805_ [comparator_in _0239_] \cnb.next_average_sum_w_0_\ d_lut_sky130_fd_sc_hd__xnor2_2
A_0806_ [_0234_ _0236_] _0240_ d_lut_sky130_fd_sc_hd__or2b_2
A_0807_ [_0240_] _0241_ d_lut_sky130_fd_sc_hd__buf_1
A_0808_ [\cnb.average_sum_r_0_\ comparator_in] _0242_ d_lut_sky130_fd_sc_hd__nand2_2
A_0809_ [\cnb.average_sum_r_1_\ _0242_] _0243_ d_lut_sky130_fd_sc_hd__xor2_2
A_0810_ [_0241_ _0243_] \cnb.next_average_sum_w_1_\ d_lut_sky130_fd_sc_hd__nor2_2
A_0811_ [\cnb.average_sum_r_0_\ comparator_in \cnb.average_sum_r_1_\] _0244_ d_lut_sky130_fd_sc_hd__and3_2
A_0812_ [\cnb.average_sum_r_2_\ _0244_] _0245_ d_lut_sky130_fd_sc_hd__xnor2_2
A_0813_ [_0241_ _0245_] \cnb.next_average_sum_w_2_\ d_lut_sky130_fd_sc_hd__nor2_2
A_0814_ [\cnb.average_sum_r_2_\ _0244_] _0246_ d_lut_sky130_fd_sc_hd__and2_2
A_0815_ [\cnb.average_sum_r_3_\ _0246_] _0247_ d_lut_sky130_fd_sc_hd__xnor2_2
A_0816_ [_0241_ _0247_] \cnb.next_average_sum_w_3_\ d_lut_sky130_fd_sc_hd__nor2_2
A_0817_ [\cnb.average_sum_r_4_\] _0248_ d_lut_sky130_fd_sc_hd__inv_2
A_0818_ [\cnb.average_sum_r_3_\ _0246_ _0248_] _0249_ d_lut_sky130_fd_sc_hd__a21oi_2
A_0819_ [\cnb.average_sum_r_3_\ _0248_ _0246_] _0250_ d_lut_sky130_fd_sc_hd__and3_2
A_0820_ [_0249_ _0250_ _0238_] \cnb.next_average_sum_w_4_\ d_lut_sky130_fd_sc_hd__o21a_2
A_0821_ [\cnb.average_counter_r_0_\ _0238_] \cnb.next_average_counter_w_0_\ d_lut_sky130_fd_sc_hd__nand2_2
A_0822_ [\cnb.average_counter_r_1_\ \cnb.average_counter_r_0_\] _0251_ d_lut_sky130_fd_sc_hd__xnor2_2
A_0823_ [_0241_ _0251_] \cnb.next_average_counter_w_1_\ d_lut_sky130_fd_sc_hd__nor2_2
A_0824_ [\cnb.average_counter_r_1_\ \cnb.average_counter_r_0_\] _0252_ d_lut_sky130_fd_sc_hd__nand2_2
A_0825_ [\cnb.average_counter_r_2_\ _0252_] _0253_ d_lut_sky130_fd_sc_hd__xor2_2
A_0826_ [_0241_ _0253_] \cnb.next_average_counter_w_2_\ d_lut_sky130_fd_sc_hd__nor2_2
A_0827_ [\cnb.average_counter_r_3_\ _0229_] _0254_ d_lut_sky130_fd_sc_hd__xnor2_2
A_0828_ [_0241_ _0254_] \cnb.next_average_counter_w_3_\ d_lut_sky130_fd_sc_hd__nor2_2
A_0829_ [\cnb.average_counter_r_4_\] _0255_ d_lut_sky130_fd_sc_hd__inv_2
A_0830_ [\cnb.average_counter_r_3_\ _0229_ _0255_] _0256_ d_lut_sky130_fd_sc_hd__a21oi_2
A_0831_ [_0255_ \cnb.average_counter_r_3_\ _0229_] _0257_ d_lut_sky130_fd_sc_hd__and3_2
A_0832_ [_0256_ _0257_ _0238_] \cnb.next_average_counter_w_4_\ d_lut_sky130_fd_sc_hd__o21a_2
A_0833_ [\cnb.shift_register_r_7_\] _0258_ d_lut_sky130_fd_sc_hd__inv_2
A_0834_ [\cnb.shift_register_r_3_\ \cnb.shift_register_r_2_\ \cnb.shift_register_r_1_\ sample_matrix_out] _0259_ d_lut_sky130_fd_sc_hd__or4_4
A_0835_ [_0259_] _0260_ d_lut_sky130_fd_sc_hd__buf_2
A_0836_ [_0258_ _0260_] _0261_ d_lut_sky130_fd_sc_hd__or2_2
A_0837_ [\cnb.shift_register_r_15_\] _0262_ d_lut_sky130_fd_sc_hd__buf_1
A_0838_ [\cnb.shift_register_r_14_\] _0263_ d_lut_sky130_fd_sc_hd__buf_1
A_0839_ [_0262_ _0263_] _0264_ d_lut_sky130_fd_sc_hd__or2_2
A_0840_ [\cnb.shift_register_r_9_\ \cnb.shift_register_r_8_\ \cnb.shift_register_r_11_\ \cnb.shift_register_r_10_\] _0265_ d_lut_sky130_fd_sc_hd__or4_4
A_0841_ [_0235_ _0265_] _0266_ d_lut_sky130_fd_sc_hd__or2_2
A_0842_ [\cnb.shift_register_r_16_\ \cnb.shift_register_r_12_\ \cnb.shift_register_r_13_\] _0267_ d_lut_sky130_fd_sc_hd__or3_2
A_0843_ [\cnb.shift_register_r_6_\ _0264_ _0266_ _0267_] _0268_ d_lut_sky130_fd_sc_hd__or4_2
A_0844_ [\cnb.shift_register_r_12_\ \cnb.shift_register_r_13_\] _0269_ d_lut_sky130_fd_sc_hd__or2_2
A_0845_ [\cnb.shift_register_r_16_\ \cnb.shift_register_r_15_\ \cnb.shift_register_r_14_\] _0270_ d_lut_sky130_fd_sc_hd__or3_2
A_0846_ [_0269_ _0270_] _0271_ d_lut_sky130_fd_sc_hd__or2_2
A_0847_ [\cnb.shift_register_r_3_\ \cnb.shift_register_r_7_\ \cnb.shift_register_r_1_\ sample_matrix_out] _0272_ d_lut_sky130_fd_sc_hd__or4_2
A_0848_ [\cnb.shift_register_r_2_\ \cnb.shift_register_r_6_\] _0273_ d_lut_sky130_fd_sc_hd__xnor2_2
A_0849_ [_0266_ _0271_ _0272_ _0273_] _0274_ d_lut_sky130_fd_sc_hd__or4_2
A_0850_ [\cnb.shift_register_r_4_\ \cnb.shift_register_r_5_\ \cnb.shift_register_r_7_\ \cnb.shift_register_r_6_\] _0275_ d_lut_sky130_fd_sc_hd__or4_4
A_0851_ [_0275_ _0260_] _0276_ d_lut_sky130_fd_sc_hd__or2_4
A_0852_ [_0276_] _0277_ d_lut_sky130_fd_sc_hd__buf_2
A_0853_ [\cnb.shift_register_r_9_\] _0278_ d_lut_sky130_fd_sc_hd__buf_1
A_0854_ [\cnb.shift_register_r_8_\] _0279_ d_lut_sky130_fd_sc_hd__buf_2
A_0855_ [_0279_ \cnb.shift_register_r_10_\] _0280_ d_lut_sky130_fd_sc_hd__or2_2
A_0856_ [_0278_ _0280_ \cnb.shift_register_r_11_\] _0281_ d_lut_sky130_fd_sc_hd__a21o_2
A_0857_ [_0279_ \cnb.shift_register_r_10_\] _0282_ d_lut_sky130_fd_sc_hd__xor2_2
A_0858_ [_0278_ _0282_] _0283_ d_lut_sky130_fd_sc_hd__nor2_2
A_0859_ [_0277_ _0271_ _0281_ _0283_] _0284_ d_lut_sky130_fd_sc_hd__or4_4
A_0860_ [\cnb.shift_register_r_12_\] _0285_ d_lut_sky130_fd_sc_hd__buf_1
A_0861_ [\cnb.shift_register_r_13_\] _0286_ d_lut_sky130_fd_sc_hd__buf_1
A_0862_ [_0286_] _0287_ d_lut_sky130_fd_sc_hd__inv_2
A_0863_ [\cnb.shift_register_r_11_\ \cnb.shift_register_r_10_\] _0288_ d_lut_sky130_fd_sc_hd__or2_2
A_0864_ [\cnb.shift_register_r_16_\ \cnb.shift_register_r_9_\ \cnb.shift_register_r_8_\] _0289_ d_lut_sky130_fd_sc_hd__or3_2
A_0865_ [_0275_ _0288_ _0259_ _0289_] _0290_ d_lut_sky130_fd_sc_hd__or4_4
A_0866_ [_0290_] _0291_ d_lut_sky130_fd_sc_hd__buf_6
A_0867_ [_0285_ _0287_ _0291_ _0264_] _0292_ d_lut_sky130_fd_sc_hd__or4_4
A_0868_ [_0261_ _0268_ _0274_ _0284_ _0292_] _0293_ d_lut_sky130_fd_sc_hd__o2111ai_2
A_0869_ [\cnb.data_register_r_0_\ _0293_] _0294_ d_lut_sky130_fd_sc_hd__nor2_2
A_0870_ [\cnb.shift_register_r_6_\ _0264_ _0265_ _0267_] _0295_ d_lut_sky130_fd_sc_hd__or4_4
A_0871_ [_0285_ _0287_ _0270_] _0296_ d_lut_sky130_fd_sc_hd__or3_2
A_0872_ [_0275_ _0260_ _0265_] _0297_ d_lut_sky130_fd_sc_hd__or3_2
A_0873_ [_0235_ _0261_ _0295_ _0296_ _0297_] _0298_ d_lut_sky130_fd_sc_hd__o32a_2
A_0874_ [_0278_ _0280_ _0269_ _0270_ \cnb.shift_register_r_11_\] _0299_ d_lut_sky130_fd_sc_hd__a2111o_2
A_0875_ [_0269_ _0270_ _0272_ _0273_] _0300_ d_lut_sky130_fd_sc_hd__or4_2
A_0876_ [_0277_ _0283_ _0299_ _0300_ _0266_] _0301_ d_lut_sky130_fd_sc_hd__o32a_2
A_0877_ [_0298_ _0301_ \cnb.data_register_r_0_\] _0302_ d_lut_sky130_fd_sc_hd__a21boi_2
A_0878_ [_0294_ _0302_] pmatrix_bincap_out_n_0_ d_lut_sky130_fd_sc_hd__nor2_2
A_0879_ [pmatrix_bincap_out_n_0_] nmatrix_bincap_out_n_0_ d_lut_sky130_fd_sc_hd__inv_2
A_0880_ [\cnb.sampled_avg_control_r_0_\ \cnb.sampled_avg_control_r_2_\] _0303_ d_lut_sky130_fd_sc_hd__and2b_2
A_0881_ [comparator_in \cnb.average_sum_r_4_\ _0303_] _0304_ d_lut_sky130_fd_sc_hd__mux2_2
A_0882_ [\cnb.average_sum_r_2_\ \cnb.average_sum_r_3_\ \cnb.sampled_avg_control_r_0_\] _0305_ d_lut_sky130_fd_sc_hd__mux2_2
A_0883_ [_0305_ comparator_in \cnb.sampled_avg_control_r_2_\] _0306_ d_lut_sky130_fd_sc_hd__mux2_2
A_0884_ [_0304_ _0306_ \cnb.sampled_avg_control_r_1_\] _0307_ d_lut_sky130_fd_sc_hd__mux2_2
A_0885_ [\cnb.average_sum_r_1_\ _0307_ _0225_] _0308_ d_lut_sky130_fd_sc_hd__mux2_2
A_0886_ [comparator_in] _0309_ d_lut_sky130_fd_sc_hd__inv_2
A_0887_ [_0309_ _0236_] _0310_ d_lut_sky130_fd_sc_hd__nor2_2
A_0888_ [_0234_ _0236_ _0308_ _0310_] _0311_ d_lut_sky130_fd_sc_hd__a31o_2
A_0889_ [_0311_] _0312_ d_lut_sky130_fd_sc_hd__buf_1
A_0890_ [_0293_ _0312_ \cnb.data_register_r_0_\] _0313_ d_lut_sky130_fd_sc_hd__a21bo_2
A_0891_ [_0311_] _0314_ d_lut_sky130_fd_sc_hd__inv_2
A_0892_ [_0298_ _0301_ _0314_ \cnb.data_register_r_0_\] _0315_ d_lut_sky130_fd_sc_hd__a211o_2
A_0893_ [_0313_ _0315_ sample_matrix_out] \cnb.next_data_register_w_0_\ d_lut_sky130_fd_sc_hd__a21oi_2
A_0894_ [sample_matrix_out] enable_loop_out d_lut_sky130_fd_sc_hd__inv_2
A_0895_ [\cnb.shift_register_r_2_\ \cnb.shift_register_r_4_\ \cnb.shift_register_r_1_\ sample_matrix_out] _0316_ d_lut_sky130_fd_sc_hd__or4_2
A_0896_ [\cnb.shift_register_r_5_\ \cnb.shift_register_r_7_\] _0317_ d_lut_sky130_fd_sc_hd__xnor2_2
A_0897_ [\cnb.shift_register_r_5_\ \cnb.shift_register_r_7_\] _0318_ d_lut_sky130_fd_sc_hd__or2_2
A_0898_ [_0317_ _0318_ \cnb.shift_register_r_3_\] _0319_ d_lut_sky130_fd_sc_hd__mux2_2
A_0899_ [_0295_ _0316_ _0319_] _0320_ d_lut_sky130_fd_sc_hd__nor3_2
A_0900_ [_0262_] _0321_ d_lut_sky130_fd_sc_hd__inv_2
A_0901_ [_0263_ _0286_] _0322_ d_lut_sky130_fd_sc_hd__xnor2_2
A_0902_ [_0263_ _0286_ _0262_] _0323_ d_lut_sky130_fd_sc_hd__o21a_2
A_0903_ [_0321_ _0322_ _0323_ _0285_ _0290_] _0324_ d_lut_sky130_fd_sc_hd__a2111oi_4
A_0904_ [\cnb.shift_register_r_11_\ \cnb.shift_register_r_10_\] _0325_ d_lut_sky130_fd_sc_hd__xnor2_2
A_0905_ [_0278_ _0262_ _0263_] _0326_ d_lut_sky130_fd_sc_hd__or3_2
A_0906_ [_0267_ _0326_] _0327_ d_lut_sky130_fd_sc_hd__nor2_2
A_0907_ [_0279_ _0277_ _0325_ _0327_] _0328_ d_lut_sky130_fd_sc_hd__nor4b_2
A_0908_ [\cnb.data_register_r_1_\ _0320_ _0324_ _0328_] _0329_ d_lut_sky130_fd_sc_hd__or4_2
A_0909_ [\cnb.shift_register_r_3_\ \cnb.shift_register_r_5_\] _0330_ d_lut_sky130_fd_sc_hd__xnor2_2
A_0910_ [\cnb.shift_register_r_4_\ \cnb.shift_register_r_5_\ \cnb.shift_register_r_7_\] _0331_ d_lut_sky130_fd_sc_hd__or3b_2
A_0911_ [\cnb.shift_register_r_7_\ _0316_ _0330_ _0331_ _0260_] _0332_ d_lut_sky130_fd_sc_hd__o32a_2
A_0912_ [_0295_ _0332_] _0333_ d_lut_sky130_fd_sc_hd__nor2_2
A_0913_ [\cnb.shift_register_r_9_\ _0279_ _0269_ _0270_] _0334_ d_lut_sky130_fd_sc_hd__or4_2
A_0914_ [_0275_ _0260_ _0325_] _0335_ d_lut_sky130_fd_sc_hd__or3_2
A_0915_ [_0334_ _0335_] _0336_ d_lut_sky130_fd_sc_hd__nor2_2
A_0916_ [_0324_ _0333_ _0336_] _0337_ d_lut_sky130_fd_sc_hd__or3_2
A_0917_ [\cnb.data_register_r_1_\ _0337_] _0338_ d_lut_sky130_fd_sc_hd__nand2_2
A_0918_ [_0329_ _0338_] _0339_ d_lut_sky130_fd_sc_hd__and2_2
A_0919_ [_0302_ _0339_] pmatrix_bincap_out_n_1_ d_lut_sky130_fd_sc_hd__xor2_2
A_0920_ [pmatrix_bincap_out_n_1_] nmatrix_bincap_out_n_1_ d_lut_sky130_fd_sc_hd__inv_2
A_0921_ [\cnb.data_register_r_1_\ _0312_] _0340_ d_lut_sky130_fd_sc_hd__or2_2
A_0922_ [_0314_ pmatrix_bincap_out_n_1_ _0340_ enable_loop_out] \cnb.next_data_register_w_1_\ d_lut_sky130_fd_sc_hd__o211a_2
A_0923_ [_0317_ _0318_ \cnb.shift_register_r_4_\] _0341_ d_lut_sky130_fd_sc_hd__mux2_2
A_0924_ [\cnb.shift_register_r_12_\ _0286_] _0342_ d_lut_sky130_fd_sc_hd__xnor2_2
A_0925_ [_0262_ \cnb.shift_register_r_12_\ \cnb.shift_register_r_13_\ \cnb.shift_register_r_14_\] _0343_ d_lut_sky130_fd_sc_hd__or4b_2
A_0926_ [_0263_ \cnb.shift_register_r_12_\ _0286_ _0262_] _0344_ d_lut_sky130_fd_sc_hd__or4b_2
A_0927_ [_0264_ _0342_ _0343_ _0344_] _0345_ d_lut_sky130_fd_sc_hd__o211a_2
A_0928_ [_0260_ _0295_ _0341_ _0345_ _0291_] _0346_ d_lut_sky130_fd_sc_hd__o32ai_2
A_0929_ [\cnb.shift_register_r_10_\ _0277_ _0334_ \cnb.shift_register_r_11_\] _0347_ d_lut_sky130_fd_sc_hd__nor4b_2
A_0930_ [\cnb.data_register_r_2_\ _0346_ _0347_] _0348_ d_lut_sky130_fd_sc_hd__or3_2
A_0931_ [_0348_] _0349_ d_lut_sky130_fd_sc_hd__inv_2
A_0932_ [_0277_ _0280_] _0350_ d_lut_sky130_fd_sc_hd__nor2_2
A_0933_ [\cnb.shift_register_r_11_\ _0327_ _0350_] _0351_ d_lut_sky130_fd_sc_hd__and3_2
A_0934_ [_0351_ _0346_ \cnb.data_register_r_2_\] _0352_ d_lut_sky130_fd_sc_hd__o21a_2
A_0935_ [_0349_ _0352_] _0353_ d_lut_sky130_fd_sc_hd__nor2_2
A_0936_ [_0320_ _0324_ _0328_ \cnb.data_register_r_1_\] _0354_ d_lut_sky130_fd_sc_hd__o31a_2
A_0937_ [_0302_ _0329_ _0354_] _0355_ d_lut_sky130_fd_sc_hd__a21o_2
A_0938_ [_0353_ _0355_] pmatrix_bincap_out_n_2_ d_lut_sky130_fd_sc_hd__xor2_2
A_0939_ [pmatrix_bincap_out_n_2_] nmatrix_bincap_out_n_2_ d_lut_sky130_fd_sc_hd__inv_2
A_0940_ [\cnb.data_register_r_2_\ _0312_] _0356_ d_lut_sky130_fd_sc_hd__or2_2
A_0941_ [_0314_ pmatrix_bincap_out_n_2_ _0356_ enable_loop_out] \cnb.next_data_register_w_2_\ d_lut_sky130_fd_sc_hd__o211a_2
A_0942_ [\cnb.data_register_r_3_\] _0357_ d_lut_sky130_fd_sc_hd__buf_1
A_0943_ [_0278_ _0279_] _0358_ d_lut_sky130_fd_sc_hd__xnor2_2
A_0944_ [_0275_ _0288_ _0358_] _0359_ d_lut_sky130_fd_sc_hd__or3_2
A_0945_ [\cnb.shift_register_r_7_\ \cnb.shift_register_r_6_\] _0360_ d_lut_sky130_fd_sc_hd__xnor2_2
A_0946_ [_0235_ _0265_ _0360_] _0361_ d_lut_sky130_fd_sc_hd__or3_2
A_0947_ [_0359_ _0361_ _0260_ _0271_] _0362_ d_lut_sky130_fd_sc_hd__a211oi_4
A_0948_ [_0347_ _0362_] _0363_ d_lut_sky130_fd_sc_hd__or2_2
A_0949_ [_0357_ _0347_ _0362_] _0364_ d_lut_sky130_fd_sc_hd__nor3_2
A_0950_ [_0357_ _0363_ _0364_] _0365_ d_lut_sky130_fd_sc_hd__a21oi_2
A_0951_ [_0352_ _0355_ _0348_] _0366_ d_lut_sky130_fd_sc_hd__o21a_2
A_0952_ [_0365_ _0366_] _0367_ d_lut_sky130_fd_sc_hd__xor2_2
A_0953_ [_0357_ _0312_] _0368_ d_lut_sky130_fd_sc_hd__or2_2
A_0954_ [_0314_ _0367_ _0368_ enable_loop_out] \cnb.next_data_register_w_3_\ d_lut_sky130_fd_sc_hd__o211a_2
A_0955_ [sample_matrix_out] _0369_ d_lut_sky130_fd_sc_hd__buf_1
A_0956_ [\cnb.data_register_r_4_\] _0370_ d_lut_sky130_fd_sc_hd__inv_2
A_0957_ [\cnb.shift_register_r_16_\ \cnb.shift_register_r_15_\ \cnb.shift_register_r_14_\ \cnb.shift_register_r_13_\] _0371_ d_lut_sky130_fd_sc_hd__or4_2
A_0958_ [_0285_ \cnb.data_register_r_4_\] _0372_ d_lut_sky130_fd_sc_hd__nand2_2
A_0959_ [_0265_ _0371_ _0372_] _0373_ d_lut_sky130_fd_sc_hd__or3_2
A_0960_ [_0278_ _0370_ _0288_] _0374_ d_lut_sky130_fd_sc_hd__or3_2
A_0961_ [_0285_ _0371_ _0374_ _0279_] _0375_ d_lut_sky130_fd_sc_hd__or4b_2
A_0962_ [_0373_ _0375_ _0277_] _0376_ d_lut_sky130_fd_sc_hd__a21oi_2
A_0963_ [_0279_ \cnb.shift_register_r_12_\] _0377_ d_lut_sky130_fd_sc_hd__xnor2_2
A_0964_ [_0275_ _0260_ _0371_ _0377_] _0378_ d_lut_sky130_fd_sc_hd__or4_4
A_0965_ [_0278_ _0288_ _0378_ _0370_] _0379_ d_lut_sky130_fd_sc_hd__o31a_2
A_0966_ [_0376_ _0379_] _0380_ d_lut_sky130_fd_sc_hd__or2_2
A_0967_ [_0380_] _0381_ d_lut_sky130_fd_sc_hd__buf_2
A_0968_ [_0324_ _0333_ _0336_ \cnb.data_register_r_1_\] _0382_ d_lut_sky130_fd_sc_hd__o31a_2
A_0969_ [_0285_ _0287_ _0265_ _0270_] _0383_ d_lut_sky130_fd_sc_hd__or4_2
A_0970_ [_0235_ _0261_ _0295_ _0383_ _0277_] _0384_ d_lut_sky130_fd_sc_hd__o32a_2
A_0971_ [\cnb.data_register_r_0_\ \cnb.data_register_r_1_\] _0385_ d_lut_sky130_fd_sc_hd__nand2_2
A_0972_ [_0284_ _0274_ _0384_ _0385_] _0386_ d_lut_sky130_fd_sc_hd__a31oi_2
A_0973_ [\cnb.data_register_r_0_\ _0293_ _0337_ _0382_ _0386_] _0387_ d_lut_sky130_fd_sc_hd__a311o_2
A_0974_ [_0357_ _0362_] _0388_ d_lut_sky130_fd_sc_hd__xor2_2
A_0975_ [_0347_ _0346_ \cnb.data_register_r_2_\] _0389_ d_lut_sky130_fd_sc_hd__nor3b_2
A_0976_ [\cnb.data_register_r_2_\ _0357_] _0390_ d_lut_sky130_fd_sc_hd__nor2_2
A_0977_ [\cnb.data_register_r_2_\ \cnb.data_register_r_3_\] _0391_ d_lut_sky130_fd_sc_hd__or2_2
A_0978_ [_0359_ _0361_ _0391_ _0271_ _0260_] _0392_ d_lut_sky130_fd_sc_hd__a2111oi_2
A_0979_ [_0347_ _0390_ _0392_ _0346_] _0393_ d_lut_sky130_fd_sc_hd__a22o_2
A_0980_ [\cnb.data_register_r_2_\ _0362_ _0357_ _0346_] _0394_ d_lut_sky130_fd_sc_hd__and4bb_2
A_0981_ [_0388_ _0389_ _0393_ _0394_] _0395_ d_lut_sky130_fd_sc_hd__a211o_2
A_0982_ [_0357_ _0362_ _0346_ \cnb.data_register_r_2_\] _0396_ d_lut_sky130_fd_sc_hd__o211a_2
A_0983_ [\cnb.data_register_r_2_\ _0347_ _0363_ _0357_ _0396_] _0397_ d_lut_sky130_fd_sc_hd__a221o_2
A_0984_ [_0387_ _0395_ _0397_] _0398_ d_lut_sky130_fd_sc_hd__a21oi_2
A_0985_ [_0381_ _0398_] _0399_ d_lut_sky130_fd_sc_hd__xnor2_2
A_0986_ [_0370_ _0399_ _0312_] _0400_ d_lut_sky130_fd_sc_hd__mux2_2
A_0987_ [_0369_ _0400_] \cnb.next_data_register_w_4_\ d_lut_sky130_fd_sc_hd__nor2_2
A_0988_ [\cnb.data_register_r_5_\] _0401_ d_lut_sky130_fd_sc_hd__inv_2
A_0989_ [_0278_ \cnb.shift_register_r_11_\] _0402_ d_lut_sky130_fd_sc_hd__xnor2_2
A_0990_ [_0280_ _0269_ _0270_ _0402_] _0403_ d_lut_sky130_fd_sc_hd__or4_2
A_0991_ [_0291_ _0345_ _0403_ _0277_] _0404_ d_lut_sky130_fd_sc_hd__o22a_2
A_0992_ [_0401_ _0404_] _0405_ d_lut_sky130_fd_sc_hd__xnor2_4
A_0993_ [_0376_ _0379_] _0406_ d_lut_sky130_fd_sc_hd__nor2_2
A_0994_ [_0357_ _0362_ _0346_ \cnb.data_register_r_2_\] _0407_ d_lut_sky130_fd_sc_hd__o211a_2
A_0995_ [_0357_ _0362_ _0391_ _0351_ _0407_] _0408_ d_lut_sky130_fd_sc_hd__a221o_2
A_0996_ [_0355_ _0395_ _0408_] _0409_ d_lut_sky130_fd_sc_hd__a21o_2
A_0997_ [_0406_ _0409_ _0376_] _0410_ d_lut_sky130_fd_sc_hd__a21oi_2
A_0998_ [_0405_ _0410_] _0411_ d_lut_sky130_fd_sc_hd__xor2_2
A_0999_ [\cnb.data_register_r_5_\ _0312_] _0412_ d_lut_sky130_fd_sc_hd__or2_2
A_1000_ [_0314_ _0411_ _0412_ enable_loop_out] \cnb.next_data_register_w_5_\ d_lut_sky130_fd_sc_hd__o211a_2
A_1001_ [\cnb.data_register_r_6_\] _0413_ d_lut_sky130_fd_sc_hd__inv_2
A_1002_ [_0334_ _0335_ _0343_ _0291_] _0414_ d_lut_sky130_fd_sc_hd__o22a_2
A_1003_ [\cnb.data_register_r_6_\ _0414_] _0415_ d_lut_sky130_fd_sc_hd__xnor2_2
A_1004_ [_0401_ _0404_] _0416_ d_lut_sky130_fd_sc_hd__and2_2
A_1005_ [_0269_ _0270_ _0402_] _0417_ d_lut_sky130_fd_sc_hd__or3_2
A_1006_ [_0277_ _0280_ _0417_ _0345_ _0291_] _0418_ d_lut_sky130_fd_sc_hd__o32a_2
A_1007_ [_0374_ _0378_] _0419_ d_lut_sky130_fd_sc_hd__or2_2
A_1008_ [_0418_ _0419_] _0420_ d_lut_sky130_fd_sc_hd__nand2_2
A_1009_ [\cnb.data_register_r_5_\ _0420_ _0379_ _0376_] _0421_ d_lut_sky130_fd_sc_hd__o2bb2a_2
A_1010_ [_0416_ _0421_] _0422_ d_lut_sky130_fd_sc_hd__nor2_2
A_1011_ [_0355_ _0395_ _0420_ \cnb.data_register_r_5_\ _0408_] _0423_ d_lut_sky130_fd_sc_hd__a221o_2
A_1012_ [\cnb.shift_register_r_16_\ _0279_] _0424_ d_lut_sky130_fd_sc_hd__or2_2
A_1013_ [_0275_ _0288_ _0260_ _0424_] _0425_ d_lut_sky130_fd_sc_hd__or4_2
A_1014_ [_0286_ _0370_ _0326_ _0285_] _0426_ d_lut_sky130_fd_sc_hd__or4b_2
A_1015_ [_0422_ _0423_ _0425_ _0426_] _0427_ d_lut_sky130_fd_sc_hd__o2bb2a_2
A_1016_ [_0415_ _0427_] _0428_ d_lut_sky130_fd_sc_hd__xor2_2
A_1017_ [_0428_] _0429_ d_lut_sky130_fd_sc_hd__buf_2
A_1018_ [_0413_ _0429_ _0311_] _0430_ d_lut_sky130_fd_sc_hd__mux2_2
A_1019_ [_0369_ _0430_] \cnb.next_data_register_w_6_\ d_lut_sky130_fd_sc_hd__nor2_2
A_1020_ [\cnb.data_register_r_7_\] _0431_ d_lut_sky130_fd_sc_hd__inv_2
A_1021_ [_0291_ _0343_ _0328_] _0432_ d_lut_sky130_fd_sc_hd__o21bai_2
A_1022_ [_0286_ _0291_ _0264_ _0372_ _0401_] _0433_ d_lut_sky130_fd_sc_hd__o41a_2
A_1023_ [_0418_ _0419_ _0433_] _0434_ d_lut_sky130_fd_sc_hd__a21oi_2
A_1024_ [_0432_ _0434_ \cnb.data_register_r_6_\] _0435_ d_lut_sky130_fd_sc_hd__a21o_2
A_1025_ [_0432_ _0434_] _0436_ d_lut_sky130_fd_sc_hd__or2_2
A_1026_ [_0263_ _0285_] _0437_ d_lut_sky130_fd_sc_hd__xnor2_2
A_1027_ [_0291_ _0437_ _0321_ _0287_] _0438_ d_lut_sky130_fd_sc_hd__and4bb_4
A_1028_ [\cnb.data_register_r_7_\ _0438_] _0439_ d_lut_sky130_fd_sc_hd__xnor2_2
A_1029_ [_0435_ _0436_ _0439_] _0440_ d_lut_sky130_fd_sc_hd__a21oi_2
A_1030_ [\cnb.data_register_r_6_\ _0432_] _0441_ d_lut_sky130_fd_sc_hd__nand2_2
A_1031_ [_0406_ _0434_ _0416_] _0442_ d_lut_sky130_fd_sc_hd__o21bai_2
A_1032_ [_0431_ _0438_] _0443_ d_lut_sky130_fd_sc_hd__xnor2_2
A_1033_ [\cnb.data_register_r_6_\ _0432_] _0444_ d_lut_sky130_fd_sc_hd__nor2_2
A_1034_ [_0441_ _0442_ _0443_ _0444_] _0445_ d_lut_sky130_fd_sc_hd__a211oi_2
A_1035_ [_0413_ _0414_] _0446_ d_lut_sky130_fd_sc_hd__nor2_2
A_1036_ [_0404_ _0419_ _0433_] _0447_ d_lut_sky130_fd_sc_hd__a21oi_4
A_1037_ [_0446_ _0443_ _0447_] _0448_ d_lut_sky130_fd_sc_hd__or3_2
A_1038_ [_0446_ _0416_] _0449_ d_lut_sky130_fd_sc_hd__and2b_2
A_1039_ [_0381_ _0444_ _0439_ _0449_] _0450_ d_lut_sky130_fd_sc_hd__or4_4
A_1040_ [_0448_ _0450_ _0409_] _0451_ d_lut_sky130_fd_sc_hd__mux2_2
A_1041_ [_0440_ _0445_ _0451_] _0452_ d_lut_sky130_fd_sc_hd__o21ai_2
A_1042_ [_0452_] _0453_ d_lut_sky130_fd_sc_hd__buf_2
A_1043_ [_0431_ _0453_ _0311_] _0454_ d_lut_sky130_fd_sc_hd__mux2_2
A_1044_ [_0369_ _0454_] \cnb.next_data_register_w_7_\ d_lut_sky130_fd_sc_hd__nor2_2
A_1045_ [\cnb.data_register_r_8_\ _0324_] _0455_ d_lut_sky130_fd_sc_hd__xnor2_2
A_1046_ [_0405_ _0439_ _0415_] _0456_ d_lut_sky130_fd_sc_hd__or3b_4
A_1047_ [_0381_ _0456_] _0457_ d_lut_sky130_fd_sc_hd__nor2_2
A_1048_ [\cnb.data_register_r_7_\ _0438_] _0458_ d_lut_sky130_fd_sc_hd__nor2_2
A_1049_ [_0458_] _0459_ d_lut_sky130_fd_sc_hd__inv_2
A_1050_ [_0262_ _0286_ _0431_ _0437_] _0460_ d_lut_sky130_fd_sc_hd__or4_2
A_1051_ [_0291_ _0460_] _0461_ d_lut_sky130_fd_sc_hd__nor2_2
A_1052_ [_0435_ _0436_ _0459_ _0461_] _0462_ d_lut_sky130_fd_sc_hd__a31o_2
A_1053_ [_0409_ _0457_ _0462_] _0463_ d_lut_sky130_fd_sc_hd__a21o_2
A_1054_ [_0455_ _0463_] _0464_ d_lut_sky130_fd_sc_hd__xnor2_2
A_1055_ [_0464_] _0465_ d_lut_sky130_fd_sc_hd__buf_1
A_1056_ [\cnb.data_register_r_8_\ _0312_] _0466_ d_lut_sky130_fd_sc_hd__or2_2
A_1057_ [_0314_ _0465_ _0466_ enable_loop_out] \cnb.next_data_register_w_8_\ d_lut_sky130_fd_sc_hd__o211a_2
A_1058_ [_0321_ _0263_ _0267_ _0297_] _0467_ d_lut_sky130_fd_sc_hd__nor4_2
A_1059_ [\cnb.data_register_r_9_\ _0467_] _0468_ d_lut_sky130_fd_sc_hd__xor2_2
A_1060_ [\cnb.data_register_r_8_\ _0324_] _0469_ d_lut_sky130_fd_sc_hd__xor2_2
A_1061_ [_0381_ _0455_ _0456_] _0470_ d_lut_sky130_fd_sc_hd__nor3_2
A_1062_ [\cnb.data_register_r_8_\ _0324_] _0471_ d_lut_sky130_fd_sc_hd__and2_2
A_1063_ [_0469_ _0462_ _0470_ _0409_ _0471_] _0472_ d_lut_sky130_fd_sc_hd__a221o_2
A_1064_ [_0468_ _0472_] _0473_ d_lut_sky130_fd_sc_hd__xnor2_2
A_1065_ [_0312_ _0473_] _0474_ d_lut_sky130_fd_sc_hd__nand2_2
A_1066_ [\cnb.data_register_r_9_\ _0312_ _0474_ enable_loop_out] \cnb.next_data_register_w_9_\ d_lut_sky130_fd_sc_hd__o211a_2
A_1067_ [\cnb.data_register_r_8_\ _0324_ \cnb.data_register_r_9_\] _0475_ d_lut_sky130_fd_sc_hd__o21a_2