* XSpice netlist created from SPICE and liberty sources by spi2xspice.py
* NGSPICE file created from adc_row_col_decoder.ext - technology: sky130A
.subckt adc_row_col_decoder a_VPWR a_VGND a_bincap_out_n_0_ a_bincap_out_n_1_ a_bincap_out_n_2_ a_c0n_out_n a_c0p_out_n a_col_out_n_0_ a_col_out_n_1_ a_col_out_n_2_ a_col_out_n_3_ a_col_out_n_4_ a_col_out_n_5_ a_col_out_n_6_ a_col_out_n_7_ a_col_out_n_8_ a_col_out_n_9_ a_col_out_n_10_ a_col_out_n_11_ a_col_out_n_12_ a_col_out_n_13_ a_col_out_n_14_ a_col_out_n_15_ a_col_out_n_16_ a_col_out_n_17_ a_col_out_n_18_ a_col_out_n_19_ a_col_out_n_20_ a_col_out_n_21_ a_col_out_n_22_ a_col_out_n_23_ a_col_out_n_24_ a_col_out_n_25_ a_col_out_n_26_ a_col_out_n_27_ a_col_out_n_28_ a_col_out_n_29_ a_col_out_n_30_ a_col_out_n_31_ a_data_in_0_ a_data_in_1_ a_data_in_2_ a_data_in_3_ a_data_in_4_ a_data_in_5_ a_data_in_6_ a_data_in_7_ a_data_in_8_ a_data_in_9_ a_data_in_10_ a_data_in_11_ a_row_out_n_0_ a_row_out_n_1_ a_row_out_n_2_ a_row_out_n_3_ a_row_out_n_4_ a_row_out_n_5_ a_row_out_n_6_ a_row_out_n_7_ a_row_out_n_8_ a_row_out_n_9_ a_row_out_n_10_ a_row_out_n_11_ a_row_out_n_12_ a_row_out_n_13_ a_row_out_n_14_ a_row_out_n_15_ a_rowon_out_n_0_ a_rowon_out_n_1_ a_rowon_out_n_2_ a_rowon_out_n_3_ a_rowon_out_n_4_ a_rowon_out_n_5_ a_rowon_out_n_6_ a_rowon_out_n_7_ a_rowon_out_n_8_ a_rowon_out_n_9_ a_rowon_out_n_10_ a_rowon_out_n_11_ a_rowon_out_n_12_ a_rowon_out_n_13_ a_rowon_out_n_14_ a_rowon_out_n_15_ a_rowoff_out_n_0_ a_rowoff_out_n_1_ a_rowoff_out_n_2_ a_rowoff_out_n_3_ a_rowoff_out_n_4_ a_rowoff_out_n_5_ a_rowoff_out_n_6_ a_rowoff_out_n_7_ a_rowoff_out_n_8_ a_rowoff_out_n_9_ a_rowoff_out_n_10_ a_rowoff_out_n_11_ a_rowoff_out_n_12_ a_rowoff_out_n_13_ a_rowoff_out_n_14_ a_rowoff_out_n_15_ a_col_out_0_ a_col_out_1_ a_col_out_2_ a_col_out_3_ a_col_out_4_ a_col_out_5_ a_col_out_6_ a_col_out_7_ a_col_out_8_ a_col_out_9_ a_col_out_10_ a_col_out_11_ a_col_out_12_ a_col_out_13_ a_col_out_14_ a_col_out_15_ a_col_out_16_ a_col_out_17_ a_col_out_18_ a_col_out_19_ a_col_out_20_ a_col_out_21_ a_col_out_22_ a_col_out_23_ a_col_out_24_ a_col_out_25_ a_col_out_26_ a_col_out_27_ a_col_out_28_ a_col_out_29_ a_col_out_30_ a_col_out_31_ a_row_mode a_col_mode
A_501_ [_114_] _167_ d_lut_sky130_fd_sc_hd__buf_2
A_432_ [net7 net8] _104_ d_lut_sky130_fd_sc_hd__and2_2
A_363_ [_053_] net85 d_lut_sky130_fd_sc_hd__clkbuf_2
A_415_ [net1] _088_ d_lut_sky130_fd_sc_hd__inv_2
A_346_ [_041_] net95 d_lut_sky130_fd_sc_hd__dlymetal6s2s_1
A_329_ [_005_ _021_ _025_] _028_ d_lut_sky130_fd_sc_hd__or3_1
A_680_ [_169_ _178_ _180_] net49 d_lut_sky130_fd_sc_hd__o21a_1
A_663_ [_294_] net112 d_lut_sky130_fd_sc_hd__clkbuf_1
A_594_ [_133_ _208_ _246_] _247_ d_lut_sky130_fd_sc_hd__o21ai_1
Aoutput31 [net31] col_out_21_ d_lut_sky130_fd_sc_hd__buf_2
Aoutput20 [net20] col_out_11_ d_lut_sky130_fd_sc_hd__buf_2
Aoutput42 [net42] col_out_31_ d_lut_sky130_fd_sc_hd__buf_2
Aoutput75 [net75] col_out_n_3_ d_lut_sky130_fd_sc_hd__buf_2
Aoutput64 [net64] col_out_n_22_ d_lut_sky130_fd_sc_hd__buf_2
Aoutput53 [net53] col_out_n_12_ d_lut_sky130_fd_sc_hd__buf_2
Aoutput86 [net86] row_out_n_13_ d_lut_sky130_fd_sc_hd__buf_2
Aoutput97 [net97] row_out_n_9_ d_lut_sky130_fd_sc_hd__buf_2
A_646_ [_117_ _279_ _289_ _155_] net71 d_lut_sky130_fd_sc_hd__a22oi_4
A_577_ [_231_ _232_ _147_] _233_ d_lut_sky130_fd_sc_hd__a21o_1
A_500_ [_116_ _165_ _090_] _166_ d_lut_sky130_fd_sc_hd__o21a_1
A_431_ [_023_ _089_] _103_ d_lut_sky130_fd_sc_hd__nand2_4
A_362_ [_019_ _031_ _052_] _053_ d_lut_sky130_fd_sc_hd__or3_1
A_629_ [_104_ _105_ _161_] _277_ d_lut_sky130_fd_sc_hd__or3_1
A_414_ [_086_] _087_ d_lut_sky130_fd_sc_hd__clkbuf_2
A_345_ [_021_ _015_ _040_] _041_ d_lut_sky130_fd_sc_hd__or3_1
A_328_ [_008_ _019_ _013_] _027_ d_lut_sky130_fd_sc_hd__or3_1
A_662_ [_007_ _037_] _294_ d_lut_sky130_fd_sc_hd__or2_1
A_593_ [_049_ _174_ _226_] _246_ d_lut_sky130_fd_sc_hd__a21oi_1
Aoutput32 [net32] col_out_22_ d_lut_sky130_fd_sc_hd__buf_2
Aoutput21 [net21] col_out_12_ d_lut_sky130_fd_sc_hd__buf_2
Aoutput43 [net43] col_out_3_ d_lut_sky130_fd_sc_hd__buf_2
Aoutput65 [net65] col_out_n_23_ d_lut_sky130_fd_sc_hd__buf_2
Aoutput76 [net76] col_out_n_4_ d_lut_sky130_fd_sc_hd__buf_2
Aoutput54 [net54] col_out_n_13_ d_lut_sky130_fd_sc_hd__buf_2
Aoutput87 [net87] row_out_n_14_ d_lut_sky130_fd_sc_hd__buf_2
Aoutput98 [net98] rowoff_out_n_0_ d_lut_sky130_fd_sc_hd__buf_2
A_645_ [_007_ _286_ _288_] _289_ d_lut_sky130_fd_sc_hd__a21o_1
A_576_ [_068_ _215_ _205_ _009_] _232_ d_lut_sky130_fd_sc_hd__a211o_1
A_430_ [_081_ _101_] _102_ d_lut_sky130_fd_sc_hd__or2_2
A_361_ [_006_ _033_] _052_ d_lut_sky130_fd_sc_hd__xnor2_1
A_628_ [_010_ _270_ _271_ _275_] _276_ d_lut_sky130_fd_sc_hd__a31o_1
A_559_ [_136_ _109_ _094_ _149_] _218_ d_lut_sky130_fd_sc_hd__nor4_1
A_413_ [_002_ _075_] _086_ d_lut_sky130_fd_sc_hd__or2_1
A_344_ [_038_ _039_ _008_] _040_ d_lut_sky130_fd_sc_hd__mux2_1
A_327_ [_020_ _024_ _025_ _026_] net90 d_lut_sky130_fd_sc_hd__a211o_1
A_661_ [net95 net127] net111 d_lut_sky130_fd_sc_hd__nand2_1
A_592_ [_079_ _164_ _138_] _245_ d_lut_sky130_fd_sc_hd__o21a_1
Aoutput33 [net33] col_out_23_ d_lut_sky130_fd_sc_hd__buf_2
Aoutput22 [net22] col_out_13_ d_lut_sky130_fd_sc_hd__buf_2
Aoutput66 [net66] col_out_n_24_ d_lut_sky130_fd_sc_hd__buf_2
Aoutput44 [net44] col_out_4_ d_lut_sky130_fd_sc_hd__buf_2
Aoutput55 [net55] col_out_n_14_ d_lut_sky130_fd_sc_hd__buf_2
Aoutput88 [net88] row_out_n_15_ d_lut_sky130_fd_sc_hd__buf_2
Aoutput99 [net99] rowoff_out_n_10_ d_lut_sky130_fd_sc_hd__buf_2
Aoutput77 [net77] col_out_n_5_ d_lut_sky130_fd_sc_hd__buf_2
A_644_ [_048_ _198_ _287_ _199_ _009_] _288_ d_lut_sky130_fd_sc_hd__o221a_1
A_575_ [_048_ _179_ _221_ _199_ _006_] _231_ d_lut_sky130_fd_sc_hd__a221o_1
A_360_ [_050_ _051_ _025_] net84 d_lut_sky130_fd_sc_hd__a21o_2
A_627_ [_093_ _272_ _273_ _274_ _006_] _275_ d_lut_sky130_fd_sc_hd__o41a_1
A_558_ [_029_ _179_] _217_ d_lut_sky130_fd_sc_hd__nand2_1
A_489_ [_125_ _111_ _119_ _126_] _156_ d_lut_sky130_fd_sc_hd__a31o_1
A_412_ [_079_ _084_] _085_ d_lut_sky130_fd_sc_hd__or2_1
A_343_ [net13 _000_] _039_ d_lut_sky130_fd_sc_hd__nand2_1
Aadc_row_col_decoder_130 c0p_out_n dzero
A_326_ [_000_] _026_ d_lut_sky130_fd_sc_hd__clkbuf_4
A_309_ [_011_] _012_ d_lut_sky130_fd_sc_hd__buf_6
A_660_ [net94 net126] net110 d_lut_sky130_fd_sc_hd__nand2_2
A_591_ [_147_ _133_] _244_ d_lut_sky130_fd_sc_hd__nand2_1
Aoutput23 [net23] col_out_14_ d_lut_sky130_fd_sc_hd__buf_2
Aoutput34 [net34] col_out_24_ d_lut_sky130_fd_sc_hd__buf_2
Aoutput56 [net56] col_out_n_15_ d_lut_sky130_fd_sc_hd__buf_2
Aoutput67 [net67] col_out_n_25_ d_lut_sky130_fd_sc_hd__buf_2
Aoutput45 [net45] col_out_5_ d_lut_sky130_fd_sc_hd__buf_2
Aoutput78 [net78] col_out_n_6_ d_lut_sky130_fd_sc_hd__buf_2
Aoutput89 [net89] row_out_n_1_ d_lut_sky130_fd_sc_hd__buf_2
A_643_ [_136_ _108_ _149_ _022_] _287_ d_lut_sky130_fd_sc_hd__o31a_1
A_574_ [_104_ _105_] _230_ d_lut_sky130_fd_sc_hd__or2_2
A_626_ [_002_ _108_ _082_ _095_] _274_ d_lut_sky130_fd_sc_hd__and4_1
A_557_ [_029_ _215_ _205_ _010_] _216_ d_lut_sky130_fd_sc_hd__a211oi_1
A_488_ [_090_] _155_ d_lut_sky130_fd_sc_hd__buf_4
A_411_ [_081_ _083_] _084_ d_lut_sky130_fd_sc_hd__or2_1
A_342_ [net13 _000_] _038_ d_lut_sky130_fd_sc_hd__or2_2
A_609_ [_133_ _259_ _226_] _260_ d_lut_sky130_fd_sc_hd__a21o_1
Aadc_row_col_decoder_131 c0n_out_n done
A_325_ [net13] _025_ d_lut_sky130_fd_sc_hd__clkinv_2
A_308_ [net4 net13 net12 net3] _011_ d_lut_sky130_fd_sc_hd__or4_1
A_590_ [_239_ _241_ _242_ _243_] net60 d_lut_sky130_fd_sc_hd__a211oi_4
Aoutput24 [net24] col_out_15_ d_lut_sky130_fd_sc_hd__buf_2
Aoutput46 [net46] col_out_6_ d_lut_sky130_fd_sc_hd__buf_2
Aoutput57 [net57] col_out_n_16_ d_lut_sky130_fd_sc_hd__buf_2
Aoutput35 [net35] col_out_25_ d_lut_sky130_fd_sc_hd__buf_2
Aoutput68 [net68] col_out_n_26_ d_lut_sky130_fd_sc_hd__buf_2
Aoutput79 [net79] col_out_n_7_ d_lut_sky130_fd_sc_hd__buf_2
A_642_ [_048_ _201_ _285_ _199_] _286_ d_lut_sky130_fd_sc_hd__a22o_1
A_573_ [_229_] net57 d_lut_sky130_fd_sc_hd__clkbuf_1
A_625_ [_091_ _136_ _022_] _273_ d_lut_sky130_fd_sc_hd__o21a_1
A_556_ [_115_ _109_ _094_ _149_ _114_] _215_ d_lut_sky130_fd_sc_hd__a41o_1
A_487_ [_090_ _151_ _153_ _135_ _154_] net77 d_lut_sky130_fd_sc_hd__a32oi_4
A_410_ [_082_ net8] _083_ d_lut_sky130_fd_sc_hd__or2_1
A_341_ [_035_ _036_ _037_ _025_] net94 d_lut_sky130_fd_sc_hd__a211o_2
A_608_ [_125_ _111_ _137_] _259_ d_lut_sky130_fd_sc_hd__o21ai_1
A_539_ [_048_ _197_ _198_ _199_] _200_ d_lut_sky130_fd_sc_hd__o2bb2a_1
A_324_ [_005_ _021_ _023_] _024_ d_lut_sky130_fd_sc_hd__or3_1
A_307_ [_009_] _010_ d_lut_sky130_fd_sc_hd__clkbuf_4
Aoutput25 [net25] col_out_16_ d_lut_sky130_fd_sc_hd__buf_2
Aoutput58 [net58] col_out_n_17_ d_lut_sky130_fd_sc_hd__buf_2
Aoutput36 [net36] col_out_26_ d_lut_sky130_fd_sc_hd__buf_2
Aoutput47 [net47] col_out_7_ d_lut_sky130_fd_sc_hd__buf_2
Aoutput69 [net69] col_out_n_27_ d_lut_sky130_fd_sc_hd__buf_2
A_641_ [_115_ _109_ _149_ _022_] _285_ d_lut_sky130_fd_sc_hd__a31o_1
A_572_ [_225_ _227_ _228_] _229_ d_lut_sky130_fd_sc_hd__or3b_1
A_624_ [_091_ net10 net8] _272_ d_lut_sky130_fd_sc_hd__and3_1
A_555_ [_081_ _113_] _214_ d_lut_sky130_fd_sc_hd__or2_1
A_486_ [_110_ _101_ _138_] _154_ d_lut_sky130_fd_sc_hd__a21o_1
A_340_ [_021_] _037_ d_lut_sky130_fd_sc_hd__clkbuf_4
A_607_ [_167_ _257_ _068_] _258_ d_lut_sky130_fd_sc_hd__a21oi_1
A_538_ [_114_] _199_ d_lut_sky130_fd_sc_hd__buf_2
A_469_ [_137_] _138_ d_lut_sky130_fd_sc_hd__buf_2
A_323_ [_022_] _023_ d_lut_sky130_fd_sc_hd__clkbuf_4
A_306_ [_008_] _009_ d_lut_sky130_fd_sc_hd__buf_2
Aoutput15 [net15] bincap_out_n_0_ d_lut_sky130_fd_sc_hd__buf_2
Aoutput37 [net37] col_out_27_ d_lut_sky130_fd_sc_hd__buf_2
Aoutput48 [net48] col_out_8_ d_lut_sky130_fd_sc_hd__buf_2
Aoutput26 [net26] col_out_17_ d_lut_sky130_fd_sc_hd__buf_2
Aoutput59 [net59] col_out_n_18_ d_lut_sky130_fd_sc_hd__buf_2
A_640_ [_117_ _267_ _283_ _284_] net70 d_lut_sky130_fd_sc_hd__o2bb2a_1
A_571_ [_023_ _115_ _139_ _075_ _199_] _228_ d_lut_sky130_fd_sc_hd__a311o_1
A_623_ [_023_ _145_ _081_] _271_ d_lut_sky130_fd_sc_hd__o21a_1
A_554_ [_079_ _206_ _209_ _213_] net54 d_lut_sky130_fd_sc_hd__a31oi_4
A_485_ [_145_ _152_ _029_] _153_ d_lut_sky130_fd_sc_hd__a21o_1
A_606_ [_109_ _149_ _137_] _257_ d_lut_sky130_fd_sc_hd__a21o_1
A_537_ [_094_ _095_ _136_ _108_] _198_ d_lut_sky130_fd_sc_hd__o211a_1
A_468_ [_136_] _137_ d_lut_sky130_fd_sc_hd__buf_2
A_399_ [_003_ _073_ _001_] net119 d_lut_sky130_fd_sc_hd__a21o_1
A_322_ [_002_] _022_ d_lut_sky130_fd_sc_hd__buf_2
A_305_ [_004_] _008_ d_lut_sky130_fd_sc_hd__clkinv_2
Aoutput27 [net27] col_out_18_ d_lut_sky130_fd_sc_hd__buf_2
Aoutput16 [net16] bincap_out_n_1_ d_lut_sky130_fd_sc_hd__buf_2
Aoutput38 [net38] col_out_28_ d_lut_sky130_fd_sc_hd__buf_2
Aoutput49 [net49] col_out_9_ d_lut_sky130_fd_sc_hd__buf_2
A_570_ [_226_ _194_ _218_] _227_ d_lut_sky130_fd_sc_hd__and3b_1
A_699_ [_239_ _234_ _282_] net37 d_lut_sky130_fd_sc_hd__a21oi_2
A_622_ [_022_ _109_ _083_ _126_ _111_] _270_ d_lut_sky130_fd_sc_hd__o32a_1
A_553_ [_127_ _211_ _212_ _184_] _213_ d_lut_sky130_fd_sc_hd__o211a_1
A_484_ [_111_ _119_ _125_] _152_ d_lut_sky130_fd_sc_hd__a21o_1
A_605_ [_137_ _164_ _167_] _256_ d_lut_sky130_fd_sc_hd__a21oi_1
A_536_ [_115_ _125_ _114_] _197_ d_lut_sky130_fd_sc_hd__o21ai_1
A_467_ [net10] _136_ d_lut_sky130_fd_sc_hd__buf_2
A_398_ [_006_ _031_] _073_ d_lut_sky130_fd_sc_hd__nand2_1
A_321_ [net4] _021_ d_lut_sky130_fd_sc_hd__clkbuf_2
A_519_ [_175_ _181_ _125_] _182_ d_lut_sky130_fd_sc_hd__a21o_1
A_304_ [_001_ _003_ _007_] net98 d_lut_sky130_fd_sc_hd__o21ai_4
Aoutput17 [net17] bincap_out_n_2_ d_lut_sky130_fd_sc_hd__buf_2
Aoutput28 [net28] col_out_19_ d_lut_sky130_fd_sc_hd__buf_2
Aoutput39 [net39] col_out_29_ d_lut_sky130_fd_sc_hd__buf_2
A_698_ [_239_ _278_ _268_ _279_ _280_] net36 d_lut_sky130_fd_sc_hd__a221o_2
A_621_ [_239_ _266_ _267_ _268_ _269_] net66 d_lut_sky130_fd_sc_hd__a221oi_2
A_552_ [_015_ _179_ _201_ _199_ _076_] _212_ d_lut_sky130_fd_sc_hd__a221o_1
A_483_ [_110_ _150_ _127_ _068_] _151_ d_lut_sky130_fd_sc_hd__a211o_1
A_604_ [_253_ _254_ _255_] net63 d_lut_sky130_fd_sc_hd__nand3b_2
A_535_ [_147_ _192_ _193_ _170_ _196_] net52 d_lut_sky130_fd_sc_hd__a221oi_4
A_466_ [_134_] _135_ d_lut_sky130_fd_sc_hd__buf_4
A_397_ [_039_ _072_ _019_] net118 d_lut_sky130_fd_sc_hd__a21o_1
A_320_ [_009_ _019_ _014_] _020_ d_lut_sky130_fd_sc_hd__or3_1
A_518_ [_091_ _095_] _181_ d_lut_sky130_fd_sc_hd__or2_1
A_449_ [_111_ _119_ _081_] _120_ d_lut_sky130_fd_sc_hd__a21oi_1
A_303_ [_006_] _007_ d_lut_sky130_fd_sc_hd__buf_4
Aoutput29 [net29] col_out_1_ d_lut_sky130_fd_sc_hd__buf_2
Aoutput18 [net18] col_out_0_ d_lut_sky130_fd_sc_hd__buf_2
A_697_ [_155_ _276_ _277_ _135_] net35 d_lut_sky130_fd_sc_hd__a22o_1
A_620_ [_079_ _221_ _135_] _269_ d_lut_sky130_fd_sc_hd__o21a_1
A_551_ [_210_] _211_ d_lut_sky130_fd_sc_hd__inv_2
A_482_ [_149_ _099_] _150_ d_lut_sky130_fd_sc_hd__or2_1
A_603_ [_199_ _105_ _249_] _255_ d_lut_sky130_fd_sc_hd__or3_1
A_534_ [_194_ _195_] _196_ d_lut_sky130_fd_sc_hd__nor2_1
A_465_ [_089_ _133_] _134_ d_lut_sky130_fd_sc_hd__nor2_1
A_396_ [_007_ _062_] _072_ d_lut_sky130_fd_sc_hd__nand2_1
A_517_ [_077_ _178_ _180_] net81 d_lut_sky130_fd_sc_hd__o21ai_2
A_448_ [_082_ _004_] _119_ d_lut_sky130_fd_sc_hd__or2b_1
A_379_ [_021_ _026_] _064_ d_lut_sky130_fd_sc_hd__nor2_1
A_302_ [_005_] _006_ d_lut_sky130_fd_sc_hd__clkbuf_4
Aoutput19 [net19] col_out_10_ d_lut_sky130_fd_sc_hd__buf_2
A_696_ [_239_ _266_ _267_ _268_ _269_] net34 d_lut_sky130_fd_sc_hd__a221o_1
A_550_ [_109_ _149_] _210_ d_lut_sky130_fd_sc_hd__nand2_1
A_481_ [net8] _149_ d_lut_sky130_fd_sc_hd__buf_2
A_679_ [_103_ _140_ _173_] net48 d_lut_sky130_fd_sc_hd__o21a_1
A_602_ [_110_ _101_ _087_ _137_] _254_ d_lut_sky130_fd_sc_hd__a211o_1
A_533_ [_110_ _142_ _138_] _195_ d_lut_sky130_fd_sc_hd__a21oi_1
A_464_ [_114_] _133_ d_lut_sky130_fd_sc_hd__clkinv_2
A_395_ [_037_ _071_] net117 d_lut_sky130_fd_sc_hd__nand2_2
A_516_ [_174_ _130_ _179_ _090_] _180_ d_lut_sky130_fd_sc_hd__a211o_1
A_447_ [_110_ _113_ _117_] _118_ d_lut_sky130_fd_sc_hd__o21a_1
A_378_ [_037_ _038_] _063_ d_lut_sky130_fd_sc_hd__nand2_1
A_301_ [_004_] _005_ d_lut_sky130_fd_sc_hd__buf_2
A_695_ [_077_ _240_ _230_ _135_ _265_] net33 d_lut_sky130_fd_sc_hd__a311o_2
A_480_ [_135_ _140_ _144_ _148_] net76 d_lut_sky130_fd_sc_hd__a22oi_4
A_678_ [_163_ _166_ _168_ _077_] net47 d_lut_sky130_fd_sc_hd__a22oi_4
A_601_ [_138_ _087_ _167_] _253_ d_lut_sky130_fd_sc_hd__a21oi_1
A_532_ [_022_ _114_] _194_ d_lut_sky130_fd_sc_hd__nand2_1
A_463_ [_077_ _124_ _129_ _132_] net75 d_lut_sky130_fd_sc_hd__o31a_1
A_394_ [_026_ _031_ _070_] _071_ d_lut_sky130_fd_sc_hd__a21o_1
A_515_ [_136_ _108_ _095_ _091_] _179_ d_lut_sky130_fd_sc_hd__a31o_1
A_446_ [_089_ _116_] _117_ d_lut_sky130_fd_sc_hd__nor2_4
A_377_ [_037_ _062_ _001_ _007_] net122 d_lut_sky130_fd_sc_hd__a2bb2o_2
A_300_ [net14] _004_ d_lut_sky130_fd_sc_hd__clkbuf_4
A_429_ [_012_ _099_ _100_ _094_ _095_] _101_ d_lut_sky130_fd_sc_hd__a221o_4
Ainput1 [col_mode] net1 d_lut_sky130_fd_sc_hd__clkbuf_2
A_694_ [_169_ _241_ _263_] net32 d_lut_sky130_fd_sc_hd__a21bo_2
A_677_ [_155_ _158_ _160_ _162_] net46 d_lut_sky130_fd_sc_hd__a31o_2
A_600_ [_244_ _245_ _247_ _252_] net62 d_lut_sky130_fd_sc_hd__o211ai_2
A_531_ [_174_ _190_] _193_ d_lut_sky130_fd_sc_hd__or2_1
A_462_ [_130_ _131_ _117_] _132_ d_lut_sky130_fd_sc_hd__o21ai_2
A_393_ [_013_ _023_ _033_ _006_] _070_ d_lut_sky130_fd_sc_hd__o31a_1
A_514_ [_174_ _101_ _176_ _177_ _127_] _178_ d_lut_sky130_fd_sc_hd__o2111a_1
A_445_ [_114_ _115_] _116_ d_lut_sky130_fd_sc_hd__nand2_2
A_376_ [_013_ _048_ _033_] _062_ d_lut_sky130_fd_sc_hd__a21o_1
A_428_ [_004_ _075_] _100_ d_lut_sky130_fd_sc_hd__nor2_1
A_359_ [_043_ _023_ _033_] _051_ d_lut_sky130_fd_sc_hd__or3b_1
Ainput2 [data_in_0_] net2 d_lut_sky130_fd_sc_hd__clkbuf_1
A_693_ [_295_] net31 d_lut_sky130_fd_sc_hd__clkbuf_1
A_676_ [_155_ _151_ _153_ _135_ _154_] net45 d_lut_sky130_fd_sc_hd__a32o_2
A_530_ [_137_ _101_ _174_] _192_ d_lut_sky130_fd_sc_hd__a21o_1
A_461_ [_125_ _111_] _131_ d_lut_sky130_fd_sc_hd__or2_1
A_392_ [_007_ _069_ _001_] net116 d_lut_sky130_fd_sc_hd__a21boi_2
A_659_ [net125 net93] net109 d_lut_sky130_fd_sc_hd__nand2_1
A_513_ [_091_ _002_] _177_ d_lut_sky130_fd_sc_hd__or2b_1
A_444_ [net10] _115_ d_lut_sky130_fd_sc_hd__buf_2
A_375_ [_061_] net121 d_lut_sky130_fd_sc_hd__clkbuf_2
A_427_ [net14 _082_] _099_ d_lut_sky130_fd_sc_hd__and2b_1
A_358_ [_015_ _033_ _042_] _050_ d_lut_sky130_fd_sc_hd__or3_1
Ainput3 [data_in_10_] net3 d_lut_sky130_fd_sc_hd__buf_2
A_692_ [_253_ _254_ _255_] _295_ d_lut_sky130_fd_sc_hd__and3b_2
A_675_ [_135_ _140_ _144_ _148_] net44 d_lut_sky130_fd_sc_hd__a22o_1
A_460_ [_012_ _099_] _130_ d_lut_sky130_fd_sc_hd__and2_1
A_391_ [_013_ _068_ _026_ _021_] _069_ d_lut_sky130_fd_sc_hd__a31o_1
A_658_ [_293_] net93 d_lut_sky130_fd_sc_hd__buf_2
A_589_ [_096_ _161_ _170_ _167_] _243_ d_lut_sky130_fd_sc_hd__o211a_1
A_512_ [_110_ _111_ _119_ _175_] _176_ d_lut_sky130_fd_sc_hd__a31o_1
A_443_ [_091_] _114_ d_lut_sky130_fd_sc_hd__buf_2
A_374_ [_006_ _039_ _060_] _061_ d_lut_sky130_fd_sc_hd__a21bo_1
A_426_ [_077_ _085_ _087_ _098_] net50 d_lut_sky130_fd_sc_hd__a2bb2o_1
A_357_ [_046_ _047_ _049_] net83 d_lut_sky130_fd_sc_hd__a21o_2
Ainput4 [data_in_11_] net4 d_lut_sky130_fd_sc_hd__buf_4
A_409_ [net7] _082_ d_lut_sky130_fd_sc_hd__clkbuf_2
A_691_ [_244_ _245_ _247_ _252_] net30 d_lut_sky130_fd_sc_hd__o211a_1
A_674_ [_147_ _124_ _129_ _132_] net43 d_lut_sky130_fd_sc_hd__o31ai_4
A_390_ [_023_] _068_ d_lut_sky130_fd_sc_hd__buf_2
A_657_ [_021_ _013_ _015_ _033_] _293_ d_lut_sky130_fd_sc_hd__or4b_1
A_588_ [_076_ _156_ _157_] _242_ d_lut_sky130_fd_sc_hd__and3_1
A_511_ [net10 _002_] _175_ d_lut_sky130_fd_sc_hd__or2b_1
A_442_ [_075_ _078_ _112_] _113_ d_lut_sky130_fd_sc_hd__a21oi_2
A_373_ [_009_ _038_ _021_] _060_ d_lut_sky130_fd_sc_hd__a21o_1
A_425_ [_090_ _012_ _097_] _098_ d_lut_sky130_fd_sc_hd__o21ai_1
A_356_ [_048_] _049_ d_lut_sky130_fd_sc_hd__buf_4
Ainput5 [data_in_1_] net5 d_lut_sky130_fd_sc_hd__clkbuf_2
A_408_ [_080_] _081_ d_lut_sky130_fd_sc_hd__clkbuf_4
A_339_ [_005_ _022_ _000_] _036_ d_lut_sky130_fd_sc_hd__or3b_1
A_690_ [_239_ _241_ _242_ _243_] net28 d_lut_sky130_fd_sc_hd__a211o_1
A_673_ [_049_ _093_ _101_ _118_ _121_] net40 d_lut_sky130_fd_sc_hd__a311o_2
A_656_ [_292_] net125 d_lut_sky130_fd_sc_hd__clkbuf_2
A_587_ [_240_ _079_ _198_ _199_] _241_ d_lut_sky130_fd_sc_hd__a211o_2
A_510_ [_136_ _108_ _114_] _174_ d_lut_sky130_fd_sc_hd__a21o_2
A_441_ [_005_ _094_ _111_] _112_ d_lut_sky130_fd_sc_hd__nand3b_1
A_372_ [_059_] net88 d_lut_sky130_fd_sc_hd__buf_2
A_639_ [_049_ _128_ _112_ _076_] _284_ d_lut_sky130_fd_sc_hd__a31o_1
A_424_ [_093_ _096_] _097_ d_lut_sky130_fd_sc_hd__and2_1
A_355_ [_022_] _048_ d_lut_sky130_fd_sc_hd__buf_2
Ainput6 [data_in_2_] net6 d_lut_sky130_fd_sc_hd__clkbuf_1
A_407_ [net11 net10 net9] _080_ d_lut_sky130_fd_sc_hd__or3_1
A_338_ [_008_ _014_ _000_] _035_ d_lut_sky130_fd_sc_hd__or3_1
A_672_ [_049_ _102_ _103_ _106_ _107_] net29 d_lut_sky130_fd_sc_hd__o221a_2
A_655_ [_019_ _039_] _292_ d_lut_sky130_fd_sc_hd__and2_1
A_586_ [_115_ _109_] _240_ d_lut_sky130_fd_sc_hd__and2_1
A_440_ [_095_] _111_ d_lut_sky130_fd_sc_hd__clkbuf_4
A_371_ [_025_ _001_ _058_] _059_ d_lut_sky130_fd_sc_hd__or3_1
A_638_ [_029_ _122_ _123_] _283_ d_lut_sky130_fd_sc_hd__and3_1
A_569_ [_075_ _004_] _226_ d_lut_sky130_fd_sc_hd__or2b_1
A_423_ [_004_ _094_ _095_] _096_ d_lut_sky130_fd_sc_hd__and3b_1
A_354_ [_025_ _033_ _042_] _047_ d_lut_sky130_fd_sc_hd__or3_1
Ainput7 [data_in_3_] net7 d_lut_sky130_fd_sc_hd__clkbuf_2
A_406_ [_075_ _078_ _004_] _079_ d_lut_sky130_fd_sc_hd__a21oi_4
A_337_ [_034_] net92 d_lut_sky130_fd_sc_hd__clkbuf_2
Ainput10 [data_in_6_] net10 d_lut_sky130_fd_sc_hd__buf_2
A_671_ [_087_ _098_ _169_ _085_] net18 d_lut_sky130_fd_sc_hd__o2bb2a_1
A_654_ [net92 net124] net108 d_lut_sky130_fd_sc_hd__nand2_1
A_585_ [_015_ _076_] _239_ d_lut_sky130_fd_sc_hd__nor2_8
A_370_ [_005_ _023_] _058_ d_lut_sky130_fd_sc_hd__xnor2_1
A_706_ [net6] net17 d_lut_sky130_fd_sc_hd__inv_2
A_637_ [_239_ _234_ _282_] net69 d_lut_sky130_fd_sc_hd__a21o_2
A_568_ [_089_ _079_ _084_] _225_ d_lut_sky130_fd_sc_hd__nor3_1
A_499_ [_068_ _164_ _009_] _165_ d_lut_sky130_fd_sc_hd__a21oi_1
A_422_ [net8] _095_ d_lut_sky130_fd_sc_hd__buf_2
A_353_ [_043_ _013_ _033_] _046_ d_lut_sky130_fd_sc_hd__or3b_1
Ainput8 [data_in_4_] net8 d_lut_sky130_fd_sc_hd__clkbuf_4
A_405_ [net4 net13 _002_ net3] _078_ d_lut_sky130_fd_sc_hd__nor4_4
A_336_ [_021_ _032_ _033_] _034_ d_lut_sky130_fd_sc_hd__or3b_1
Aoutput120 [net120] rowon_out_n_15_ d_lut_sky130_fd_sc_hd__buf_2
Ainput11 [data_in_7_] net11 d_lut_sky130_fd_sc_hd__clkbuf_2
A_319_ [net4] _019_ d_lut_sky130_fd_sc_hd__inv_2
A_670_ [net88 net120] net104 d_lut_sky130_fd_sc_hd__nand2_2
A_653_ [net91 net123] net107 d_lut_sky130_fd_sc_hd__nand2_1
A_584_ [_155_ _234_ _236_ _238_] net59 d_lut_sky130_fd_sc_hd__o22a_2
A_705_ [net5] net16 d_lut_sky130_fd_sc_hd__inv_2
A_636_ [_076_ _133_ _170_ _146_ _281_] _282_ d_lut_sky130_fd_sc_hd__a221o_1
A_567_ [_077_ _223_ _224_] net56 d_lut_sky130_fd_sc_hd__o21ai_4
A_498_ [_108_ _094_ _095_] _164_ d_lut_sky130_fd_sc_hd__or3_1
A_421_ [_082_] _094_ d_lut_sky130_fd_sc_hd__buf_2
A_352_ [_044_ _045_ _026_] net97 d_lut_sky130_fd_sc_hd__a21o_2
Ainput9 [data_in_5_] net9 d_lut_sky130_fd_sc_hd__buf_2
A_619_ [_116_ _087_] _268_ d_lut_sky130_fd_sc_hd__nor2_2
A_404_ [_076_] _077_ d_lut_sky130_fd_sc_hd__buf_4
A_335_ [_000_] _033_ d_lut_sky130_fd_sc_hd__buf_2
Aoutput110 [net110] rowoff_out_n_6_ d_lut_sky130_fd_sc_hd__buf_2
Aoutput121 [net121] rowon_out_n_1_ d_lut_sky130_fd_sc_hd__buf_2
Ainput12 [data_in_8_] net12 d_lut_sky130_fd_sc_hd__buf_2
A_318_ [_018_] net89 d_lut_sky130_fd_sc_hd__dlymetal6s2s_1
A_652_ [net90 net122] net106 d_lut_sky130_fd_sc_hd__nand2_1
A_583_ [_155_ _237_] _238_ d_lut_sky130_fd_sc_hd__nand2_1
A_704_ [net2] net15 d_lut_sky130_fd_sc_hd__inv_2
A_635_ [_005_ _078_ _210_ _261_ _076_] _281_ d_lut_sky130_fd_sc_hd__o311a_1
A_566_ [_089_ _081_ _101_] _224_ d_lut_sky130_fd_sc_hd__or3_2
A_497_ [_127_ _139_ _029_] _163_ d_lut_sky130_fd_sc_hd__o21ai_2
A_420_ [_092_] _093_ d_lut_sky130_fd_sc_hd__buf_2
A_351_ [_025_ _023_ _043_] _045_ d_lut_sky130_fd_sc_hd__or3_1
A_618_ [_079_ _164_] _267_ d_lut_sky130_fd_sc_hd__or2_1
A_549_ [_207_ _208_ _133_] _209_ d_lut_sky130_fd_sc_hd__o21ai_2
A_403_ [_075_] _076_ d_lut_sky130_fd_sc_hd__buf_4
A_334_ [_003_ _031_ _008_] _032_ d_lut_sky130_fd_sc_hd__mux2_1
Aoutput100 [net100] rowoff_out_n_11_ d_lut_sky130_fd_sc_hd__buf_2
Aoutput122 [net122] rowon_out_n_2_ d_lut_sky130_fd_sc_hd__buf_2
Aoutput111 [net111] rowoff_out_n_7_ d_lut_sky130_fd_sc_hd__buf_2
A_317_ [_013_ _015_ _017_] _018_ d_lut_sky130_fd_sc_hd__or3_1
Ainput13 [data_in_9_] net13 d_lut_sky130_fd_sc_hd__buf_4
A_651_ [net89 net121] net105 d_lut_sky130_fd_sc_hd__nand2_1
A_582_ [_068_ _179_ _201_ _167_ _010_] _237_ d_lut_sky130_fd_sc_hd__a221o_1
A_703_ [_169_ _106_ _291_] net42 d_lut_sky130_fd_sc_hd__a21o_1
A_634_ [_239_ _278_ _268_ _279_ _280_] net68 d_lut_sky130_fd_sc_hd__a221oi_4
A_565_ [_029_ _138_ _139_ _222_] _223_ d_lut_sky130_fd_sc_hd__a31o_1
A_496_ [_155_ _158_ _160_ _162_] net78 d_lut_sky130_fd_sc_hd__a31oi_2
A_350_ [_013_ _015_ _042_] _044_ d_lut_sky130_fd_sc_hd__or3_1
A_617_ [_127_ _139_] _266_ d_lut_sky130_fd_sc_hd__or2_1
A_548_ [_110_ _083_ _137_] _208_ d_lut_sky130_fd_sc_hd__a21oi_1
A_479_ [_049_ _146_ _147_] _148_ d_lut_sky130_fd_sc_hd__a21oi_2
A_402_ [net1] _075_ d_lut_sky130_fd_sc_hd__buf_4
A_333_ [_030_] _031_ d_lut_sky130_fd_sc_hd__buf_2
Aoutput101 [net101] rowoff_out_n_12_ d_lut_sky130_fd_sc_hd__buf_2
Aoutput112 [net112] rowoff_out_n_8_ d_lut_sky130_fd_sc_hd__buf_2
Aoutput123 [net123] rowon_out_n_3_ d_lut_sky130_fd_sc_hd__buf_2
A_316_ [_009_ _001_ _016_] _017_ d_lut_sky130_fd_sc_hd__o21a_1
Ainput14 [row_mode] net14 d_lut_sky130_fd_sc_hd__buf_2
A_650_ [_077_ _106_ _291_] net74 d_lut_sky130_fd_sc_hd__a21oi_1
A_581_ [_007_ _235_] _236_ d_lut_sky130_fd_sc_hd__nor2_1
A_702_ [_102_ _239_ _106_ _170_ _290_] net41 d_lut_sky130_fd_sc_hd__a221o_1
A_633_ [_138_ _143_ _134_] _280_ d_lut_sky130_fd_sc_hd__o21a_1
A_564_ [_009_ _015_ _221_ _167_] _222_ d_lut_sky130_fd_sc_hd__o31a_1
A_495_ [_113_ _161_ _135_] _162_ d_lut_sky130_fd_sc_hd__o21a_1
A_616_ [_147_ _240_ _230_ _135_ _265_] net65 d_lut_sky130_fd_sc_hd__a311oi_4
A_547_ [_076_ _198_] _207_ d_lut_sky130_fd_sc_hd__nor2_1
A_478_ [_076_] _147_ d_lut_sky130_fd_sc_hd__clkbuf_8
A_401_ [_074_] net120 d_lut_sky130_fd_sc_hd__clkbuf_2
A_332_ [net13 _002_] _030_ d_lut_sky130_fd_sc_hd__or2_1
Aoutput102 [net102] rowoff_out_n_13_ d_lut_sky130_fd_sc_hd__buf_2
Aoutput113 [net113] rowoff_out_n_9_ d_lut_sky130_fd_sc_hd__buf_2
Aoutput124 [net124] rowon_out_n_4_ d_lut_sky130_fd_sc_hd__buf_2
A_315_ [_004_ net4 _000_] _016_ d_lut_sky130_fd_sc_hd__or3_1
A_580_ [_167_ _198_ _205_ _068_] _235_ d_lut_sky130_fd_sc_hd__o22a_1
A_701_ [_117_ _279_ _289_ _155_] net39 d_lut_sky130_fd_sc_hd__a22o_1
A_632_ [_125_ _104_ _105_] _279_ d_lut_sky130_fd_sc_hd__or3_4
A_563_ [net10 net9 _082_ net8] _221_ d_lut_sky130_fd_sc_hd__or4_2
A_494_ [_115_ _109_] _161_ d_lut_sky130_fd_sc_hd__or2_1
A_615_ [_048_ _137_ _139_ _264_ _089_] _265_ d_lut_sky130_fd_sc_hd__o311a_1
A_546_ [_103_ _205_] _206_ d_lut_sky130_fd_sc_hd__or2_1
A_477_ [_110_ _096_ _145_] _146_ d_lut_sky130_fd_sc_hd__o21ai_1
A_400_ [_009_ _001_ _003_] _074_ d_lut_sky130_fd_sc_hd__or3_1
A_331_ [_027_ _028_ _029_ _026_] net91 d_lut_sky130_fd_sc_hd__a211o_4
A_529_ [_077_ _185_ _189_ _191_] net51 d_lut_sky130_fd_sc_hd__o31a_2
Aoutput103 [net103] rowoff_out_n_14_ d_lut_sky130_fd_sc_hd__buf_2
Aoutput114 [net114] rowon_out_n_0_ d_lut_sky130_fd_sc_hd__buf_2
Aoutput125 [net125] rowon_out_n_5_ d_lut_sky130_fd_sc_hd__buf_2
A_314_ [_014_] _015_ d_lut_sky130_fd_sc_hd__clkbuf_4
A_700_ [_283_ _284_ _117_ _267_] net38 d_lut_sky130_fd_sc_hd__a2bb2o_1
A_631_ [_110_ _150_ _127_] _278_ d_lut_sky130_fd_sc_hd__a21o_1
A_562_ [_169_ _214_ _216_ _220_] net55 d_lut_sky130_fd_sc_hd__o2bb2a_1
A_493_ [_049_ _159_] _160_ d_lut_sky130_fd_sc_hd__nand2_1
A_614_ [_023_ _137_ _171_ _199_] _264_ d_lut_sky130_fd_sc_hd__a31o_1
A_545_ [_136_ _108_ _149_ _114_] _205_ d_lut_sky130_fd_sc_hd__o31a_1
A_476_ [_091_ _136_] _145_ d_lut_sky130_fd_sc_hd__and2_1
A_330_ [_015_] _029_ d_lut_sky130_fd_sc_hd__clkbuf_4
A_528_ [_174_ _190_ _077_] _191_ d_lut_sky130_fd_sc_hd__o21ai_2
A_459_ [_029_ _128_ _112_] _129_ d_lut_sky130_fd_sc_hd__and3_1
Aoutput104 [net104] rowoff_out_n_15_ d_lut_sky130_fd_sc_hd__buf_2
Aoutput115 [net115] rowon_out_n_10_ d_lut_sky130_fd_sc_hd__buf_2
Aoutput126 [net126] rowon_out_n_6_ d_lut_sky130_fd_sc_hd__buf_2
A_313_ [_002_] _014_ d_lut_sky130_fd_sc_hd__inv_2
A_630_ [_155_ _276_ _277_ _135_] net67 d_lut_sky130_fd_sc_hd__a22oi_2
A_561_ [_010_ _217_ _219_ _076_] _220_ d_lut_sky130_fd_sc_hd__a31o_1
A_492_ [_099_ _131_ _145_] _159_ d_lut_sky130_fd_sc_hd__o21ai_1
A_613_ [_169_ _241_ _263_] net64 d_lut_sky130_fd_sc_hd__a21boi_4
A_544_ [_077_ _203_ _204_] net53 d_lut_sky130_fd_sc_hd__o21ai_2
A_475_ [_068_ _127_ _143_] _144_ d_lut_sky130_fd_sc_hd__or3_1
A_527_ [_089_ _012_ _104_ _115_ _008_] _190_ d_lut_sky130_fd_sc_hd__o2111a_1
A_458_ [_125_ _127_] _128_ d_lut_sky130_fd_sc_hd__nor2_1
A_389_ [_025_ _066_ _067_ _010_ _064_] net115 d_lut_sky130_fd_sc_hd__a221o_4
Aoutput116 [net116] rowon_out_n_11_ d_lut_sky130_fd_sc_hd__buf_2
Aoutput105 [net105] rowoff_out_n_1_ d_lut_sky130_fd_sc_hd__buf_2
Aoutput127 [net127] rowon_out_n_7_ d_lut_sky130_fd_sc_hd__buf_2
A_312_ [net13] _013_ d_lut_sky130_fd_sc_hd__buf_2
A_560_ [_194_ _218_] _219_ d_lut_sky130_fd_sc_hd__or2_1
A_491_ [_156_ _157_ _068_] _158_ d_lut_sky130_fd_sc_hd__a21o_1
A_689_ [_155_ _234_ _236_ _238_] net27 d_lut_sky130_fd_sc_hd__o22ai_4
A_612_ [_251_ _256_ _258_ _260_ _262_] _263_ d_lut_sky130_fd_sc_hd__o32a_1
A_543_ [_089_ _127_ _139_] _204_ d_lut_sky130_fd_sc_hd__or3_1
A_474_ [_012_ _141_ _142_ _125_] _143_ d_lut_sky130_fd_sc_hd__o211a_1
A_526_ [_110_ _186_ _188_ _079_] _189_ d_lut_sky130_fd_sc_hd__a211oi_2
A_457_ [_126_] _127_ d_lut_sky130_fd_sc_hd__clkbuf_4
A_388_ [_048_ _026_ _037_] _067_ d_lut_sky130_fd_sc_hd__o21ai_1
Aoutput106 [net106] rowoff_out_n_2_ d_lut_sky130_fd_sc_hd__buf_2
Aoutput117 [net117] rowon_out_n_12_ d_lut_sky130_fd_sc_hd__buf_2
Aoutput128 [net128] rowon_out_n_8_ d_lut_sky130_fd_sc_hd__buf_2
A_311_ [net98 net114] net82 d_lut_sky130_fd_sc_hd__nand2_1
A_509_ [_103_ _140_ _173_] net80 d_lut_sky130_fd_sc_hd__o21ai_4
A_490_ [_088_ _082_ _012_ _126_] _157_ d_lut_sky130_fd_sc_hd__or4_1
A_688_ [_090_ _081_ _230_ _233_] net26 d_lut_sky130_fd_sc_hd__o31a_2
A_611_ [_133_ _261_ _029_] _262_ d_lut_sky130_fd_sc_hd__o21a_1
A_542_ [_010_ _200_ _202_] _203_ d_lut_sky130_fd_sc_hd__o21a_1
A_473_ [_082_ net8 net14] _142_ d_lut_sky130_fd_sc_hd__or3b_1
A_525_ [_014_ _115_ _104_ _187_ _145_] _188_ d_lut_sky130_fd_sc_hd__a311o_1
A_456_ [_091_ net10] _126_ d_lut_sky130_fd_sc_hd__or2_1
A_387_ [_021_ _048_ _033_ _006_] _066_ d_lut_sky130_fd_sc_hd__o22ai_1
Aoutput107 [net107] rowoff_out_n_3_ d_lut_sky130_fd_sc_hd__buf_2
Aoutput118 [net118] rowon_out_n_13_ d_lut_sky130_fd_sc_hd__buf_2
Aoutput129 [net129] rowon_out_n_9_ d_lut_sky130_fd_sc_hd__buf_2
A_310_ [_010_ _012_] net114 d_lut_sky130_fd_sc_hd__nand2_2
A_508_ [_147_ _138_ _139_ _172_] _173_ d_lut_sky130_fd_sc_hd__a31o_1
A_439_ [_109_] _110_ d_lut_sky130_fd_sc_hd__clkbuf_4
A_687_ [_225_ _227_ _228_] net25 d_lut_sky130_fd_sc_hd__nor3b_2
A_610_ [_125_ _094_ _149_ _137_] _261_ d_lut_sky130_fd_sc_hd__a31oi_1
A_541_ [_015_ _174_ _201_ _199_ _006_] _202_ d_lut_sky130_fd_sc_hd__a221o_1
A_472_ [_082_ net8 net1] _141_ d_lut_sky130_fd_sc_hd__or3b_1
A_524_ [_002_ _091_] _187_ d_lut_sky130_fd_sc_hd__and2b_1
A_455_ [_108_] _125_ d_lut_sky130_fd_sc_hd__buf_2
A_386_ [_037_ _062_ _063_ _010_] net129 d_lut_sky130_fd_sc_hd__a2bb2o_2
Aoutput119 [net119] rowon_out_n_14_ d_lut_sky130_fd_sc_hd__buf_2
Aoutput108 [net108] rowoff_out_n_4_ d_lut_sky130_fd_sc_hd__buf_2
Aoutput90 [net90] row_out_n_2_ d_lut_sky130_fd_sc_hd__buf_2
A_507_ [_138_ _170_ _171_ _167_] _172_ d_lut_sky130_fd_sc_hd__a31o_1
A_438_ [_108_] _109_ d_lut_sky130_fd_sc_hd__buf_2
A_369_ [_057_] net87 d_lut_sky130_fd_sc_hd__clkbuf_2
A_686_ [_169_ _223_ _224_] net24 d_lut_sky130_fd_sc_hd__o21a_2