* XSpice netlist created from SPICE and liberty sources by spi2xspice.py
* NGSPICE file created from adc_clkgen_with_edgedetect.ext - technology: sky130A
.subckt adc_clkgen_with_edgedetect a_VGND a_VPWR a_clk_comp_out a_clk_dig_out a_dlycontrol1_in_0_ a_dlycontrol1_in_1_ a_dlycontrol1_in_2_ a_dlycontrol1_in_3_ a_dlycontrol1_in_4_ a_dlycontrol2_in_0_ a_dlycontrol2_in_1_ a_dlycontrol2_in_2_ a_dlycontrol2_in_3_ a_dlycontrol2_in_4_ a_dlycontrol3_in_0_ a_dlycontrol3_in_1_ a_dlycontrol3_in_2_ a_dlycontrol3_in_3_ a_dlycontrol3_in_4_ a_dlycontrol4_in_0_ a_dlycontrol4_in_1_ a_dlycontrol4_in_2_ a_dlycontrol4_in_3_ a_dlycontrol4_in_4_ a_dlycontrol4_in_5_ a_ena_in a_enable_dlycontrol_in a_ndecision_finish_in a_nsample_n_in a_nsample_n_out a_nsample_p_in a_nsample_p_out a_sample_n_in a_sample_n_out a_sample_p_in a_sample_p_out a_start_conv_in
Aclkgen.delay_155ns_2.genblk1\_0\_.control_invert [dlycontrol2_in_0_] clkgen.delay_155ns_2.genblk1\_0\_.bypass_enable/B d_lut_sky130_fd_sc_hd__inv_2
Aclkgen.delay_155ns_2.genblk1\_0\_.dly_binary.out_mux [clkgen.delay_155ns_2.genblk1\_0\_.dly_binary.out_mux/A0 outbuf_1/A clkgen.delay_155ns_2.genblk1\_0\_.bypass_enable/X] clkgen.delay_155ns_2.genblk1\_0\_.dly_binary.out_mux/X d_lut_sky130_fd_sc_hd__mux2_1
Aclkgen.delay_155ns_2.genblk1\_2\_.dly_binary.out_mux [clkgen.delay_155ns_2.genblk1\_2\_.dly_binary.out_mux/A0 clkgen.delay_155ns_2.genblk1\_1\_.dly_binary.out_mux/X clkgen.delay_155ns_2.genblk1\_2\_.bypass_enable/X] clkgen.delay_155ns_2.genblk1\_2\_.dly_binary.out_mux/X d_lut_sky130_fd_sc_hd__mux2_1
Aclkgen.delay_155ns_2.genblk1\_4\_.dly_binary.out_mux [clkgen.delay_155ns_2.genblk1\_4\_.dly_binary.out_mux/A0 clkgen.delay_155ns_2.genblk1\_3\_.dly_binary.out_mux/X clkgen.delay_155ns_2.genblk1\_4\_.bypass_enable/X] clkgen.nor1/A d_lut_sky130_fd_sc_hd__mux2_1
Aedgedetect.or1 [edgedetect.or1/A inbuf_1/X] clkgen.nor1/B_N d_lut_sky130_fd_sc_hd__or2_1
Aclkgen.delay_155ns_3.genblk1\_0\_.dly_binary.genblk1\_0\_.delay_unit [clkgen.delay_155ns_3.genblk1\_0\_.dly_binary.and_bypass_switch/X] clkgen.delay_155ns_3.genblk1\_0\_.dly_binary.out_mux/A0 d_lut_sky130_mm_sc_hd_dlyPoly5ns
Aedgedetect.dly_315ns_1.genblk1\_1\_.bypass_enable [edgedetect.dly_315ns_1.enablebuffer/X edgedetect.dly_315ns_1.genblk1\_1\_.bypass_enable/B] edgedetect.dly_315ns_1.genblk1\_1\_.bypass_enable/X d_lut_sky130_fd_sc_hd__and2_1
Aclkgen.delay_155ns_1.genblk1\_4\_.dly_binary.genblk1\_14\_.delay_unit [clkgen.delay_155ns_1.genblk1\_4\_.dly_binary.genblk1\_14\_.delay_unit/in] clkgen.delay_155ns_1.genblk1\_4\_.dly_binary.genblk1\_15\_.delay_unit/in d_lut_sky130_mm_sc_hd_dlyPoly5ns
Aclkgen.delay_155ns_1.genblk1\_2\_.bypass_enable [clkgen.delay_155ns_1.enablebuffer/X clkgen.delay_155ns_1.genblk1\_2\_.bypass_enable/B] clkgen.delay_155ns_1.genblk1\_2\_.bypass_enable/X d_lut_sky130_fd_sc_hd__and2_1
Aclkgen.delay_155ns_2.genblk1\_3\_.bypass_enable [clkgen.delay_155ns_2.enablebuffer/X clkgen.delay_155ns_2.genblk1\_3\_.bypass_enable/B] clkgen.delay_155ns_2.genblk1\_3\_.bypass_enable/X d_lut_sky130_fd_sc_hd__and2_1
Aclkgen.delay_155ns_3.genblk1\_4\_.bypass_enable [clkgen.delay_155ns_3.enablebuffer/X clkgen.delay_155ns_3.genblk1\_4\_.bypass_enable/B] clkgen.delay_155ns_3.genblk1\_4\_.bypass_enable/X d_lut_sky130_fd_sc_hd__and2_1
Aedgedetect.dly_315ns_1.genblk1\_5\_.dly_binary.genblk1\_3\_.delay_unit [edgedetect.dly_315ns_1.genblk1\_5\_.dly_binary.genblk1\_3\_.delay_unit/in] edgedetect.dly_315ns_1.genblk1\_5\_.dly_binary.genblk1\_4\_.delay_unit/in d_lut_sky130_mm_sc_hd_dlyPoly5ns
Aclkgen.delay_155ns_3.genblk1\_4\_.dly_binary.genblk1\_1\_.delay_unit [clkgen.delay_155ns_3.genblk1\_4\_.dly_binary.genblk1\_1\_.delay_unit/in] clkgen.delay_155ns_3.genblk1\_4\_.dly_binary.genblk1\_2\_.delay_unit/in d_lut_sky130_mm_sc_hd_dlyPoly5ns
Aedgedetect.dly_315ns_1.genblk1\_1\_.control_invert [dlycontrol4_in_1_] edgedetect.dly_315ns_1.genblk1\_1\_.bypass_enable/B d_lut_sky130_fd_sc_hd__inv_2
Aedgedetect.dly_315ns_1.genblk1\_5\_.dly_binary.genblk1\_8\_.delay_unit [edgedetect.dly_315ns_1.genblk1\_5\_.dly_binary.genblk1\_8\_.delay_unit/in] edgedetect.dly_315ns_1.genblk1\_5\_.dly_binary.genblk1\_9\_.delay_unit/in d_lut_sky130_mm_sc_hd_dlyPoly5ns
Aclkgen.delay_155ns_2.genblk1\_4\_.dly_binary.genblk1\_12\_.delay_unit [clkgen.delay_155ns_2.genblk1\_4\_.dly_binary.genblk1\_12\_.delay_unit/in] clkgen.delay_155ns_2.genblk1\_4\_.dly_binary.genblk1\_13\_.delay_unit/in d_lut_sky130_mm_sc_hd_dlyPoly5ns
Aclkgen.delay_155ns_3.genblk1\_4\_.dly_binary.genblk1\_6\_.delay_unit [clkgen.delay_155ns_3.genblk1\_4\_.dly_binary.genblk1\_6\_.delay_unit/in] clkgen.delay_155ns_3.genblk1\_4\_.dly_binary.genblk1\_7\_.delay_unit/in d_lut_sky130_mm_sc_hd_dlyPoly5ns
Aedgedetect.nor1 [edgedetect.nor1/A inbuf_2/X] edgedetect.or1/A d_lut_sky130_fd_sc_hd__nor2b_1
Aclkgen.delay_155ns_2.genblk1\_4\_.dly_binary.genblk1\_0\_.delay_unit [clkgen.delay_155ns_2.genblk1\_4\_.dly_binary.and_bypass_switch/X] clkgen.delay_155ns_2.genblk1\_4\_.dly_binary.genblk1\_1\_.delay_unit/in d_lut_sky130_mm_sc_hd_dlyPoly5ns
Aclkgen.delay_155ns_3.genblk1\_1\_.control_invert [dlycontrol3_in_1_] clkgen.delay_155ns_3.genblk1\_1\_.bypass_enable/B d_lut_sky130_fd_sc_hd__inv_2
Aedgedetect.dly_315ns_1.genblk1\_4\_.dly_binary.genblk1\_3\_.delay_unit [edgedetect.dly_315ns_1.genblk1\_4\_.dly_binary.genblk1\_3\_.delay_unit/in] edgedetect.dly_315ns_1.genblk1\_4\_.dly_binary.genblk1\_4\_.delay_unit/in d_lut_sky130_mm_sc_hd_dlyPoly5ns
Aclkgen.delay_155ns_2.genblk1\_4\_.dly_binary.genblk1\_5\_.delay_unit [clkgen.delay_155ns_2.genblk1\_4\_.dly_binary.genblk1\_5\_.delay_unit/in] clkgen.delay_155ns_2.genblk1\_4\_.dly_binary.genblk1\_6\_.delay_unit/in d_lut_sky130_mm_sc_hd_dlyPoly5ns
Aclkgen.delay_155ns_3.genblk1\_3\_.dly_binary.genblk1\_1\_.delay_unit [clkgen.delay_155ns_3.genblk1\_3\_.dly_binary.genblk1\_1\_.delay_unit/in] clkgen.delay_155ns_3.genblk1\_3\_.dly_binary.genblk1\_2\_.delay_unit/in d_lut_sky130_mm_sc_hd_dlyPoly5ns
Aedgedetect.dly_315ns_1.genblk1\_5\_.dly_binary.genblk1\_10\_.delay_unit [edgedetect.dly_315ns_1.genblk1\_5\_.dly_binary.genblk1\_9\_.delay_unit/out] edgedetect.dly_315ns_1.genblk1\_5\_.dly_binary.genblk1\_11\_.delay_unit/in d_lut_sky130_mm_sc_hd_dlyPoly5ns
Aclkgen.delay_155ns_3.genblk1\_4\_.dly_binary.genblk1\_10\_.delay_unit [clkgen.delay_155ns_3.genblk1\_4\_.dly_binary.genblk1\_9\_.delay_unit/out] clkgen.delay_155ns_3.genblk1\_4\_.dly_binary.genblk1\_11\_.delay_unit/in d_lut_sky130_mm_sc_hd_dlyPoly5ns
Aedgedetect.dly_315ns_1.genblk1\_4\_.dly_binary.genblk1\_8\_.delay_unit [edgedetect.dly_315ns_1.genblk1\_4\_.dly_binary.genblk1\_8\_.delay_unit/in] edgedetect.dly_315ns_1.genblk1\_4\_.dly_binary.genblk1\_9\_.delay_unit/in d_lut_sky130_mm_sc_hd_dlyPoly5ns
Aedgedetect.dly_315ns_1.genblk1\_4\_.dly_binary.genblk1\_11\_.delay_unit [edgedetect.dly_315ns_1.genblk1\_4\_.dly_binary.genblk1\_11\_.delay_unit/in] edgedetect.dly_315ns_1.genblk1\_4\_.dly_binary.genblk1\_12\_.delay_unit/in d_lut_sky130_mm_sc_hd_dlyPoly5ns
Aclkgen.delay_155ns_3.genblk1\_3\_.dly_binary.genblk1\_6\_.delay_unit [clkgen.delay_155ns_3.genblk1\_3\_.dly_binary.genblk1\_6\_.delay_unit/in] clkgen.delay_155ns_3.genblk1\_3\_.dly_binary.genblk1\_7\_.delay_unit/in d_lut_sky130_mm_sc_hd_dlyPoly5ns
Aclkgen.delay_155ns_1.genblk1\_4\_.dly_binary.genblk1\_4\_.delay_unit [clkgen.delay_155ns_1.genblk1\_4\_.dly_binary.genblk1\_4\_.delay_unit/in] clkgen.delay_155ns_1.genblk1\_4\_.dly_binary.genblk1\_5\_.delay_unit/in d_lut_sky130_mm_sc_hd_dlyPoly5ns
Aclkgen.delay_155ns_2.genblk1\_3\_.dly_binary.genblk1\_0\_.delay_unit [clkgen.delay_155ns_2.genblk1\_3\_.dly_binary.and_bypass_switch/X] clkgen.delay_155ns_2.genblk1\_3\_.dly_binary.genblk1\_1\_.delay_unit/in d_lut_sky130_mm_sc_hd_dlyPoly5ns
Aclkgen.delay_155ns_3.genblk1\_4\_.dly_binary.genblk1\_15\_.delay_unit [clkgen.delay_155ns_3.genblk1\_4\_.dly_binary.genblk1\_15\_.delay_unit/in] clkgen.delay_155ns_3.genblk1\_4\_.dly_binary.out_mux/A0 d_lut_sky130_mm_sc_hd_dlyPoly5ns
Aedgedetect.dly_315ns_1.genblk1\_5\_.dly_binary.genblk1\_15\_.delay_unit [edgedetect.dly_315ns_1.genblk1\_5\_.dly_binary.genblk1\_15\_.delay_unit/in] edgedetect.dly_315ns_1.genblk1\_5\_.dly_binary.genblk1\_16\_.delay_unit/in d_lut_sky130_mm_sc_hd_dlyPoly5ns
Aclkgen.nor1 [clkgen.nor1/A clkgen.nor1/B_N] clkgen.nor1/Y d_lut_sky130_fd_sc_hd__nor2b_1
Aclkgen.delay_155ns_1.genblk1\_4\_.dly_binary.genblk1\_9\_.delay_unit [clkgen.delay_155ns_1.genblk1\_4\_.dly_binary.genblk1\_9\_.delay_unit/in] clkgen.delay_155ns_1.genblk1\_4\_.dly_binary.genblk1\_9\_.delay_unit/out d_lut_sky130_mm_sc_hd_dlyPoly5ns
Aedgedetect.dly_315ns_1.genblk1\_3\_.dly_binary.genblk1\_3\_.delay_unit [edgedetect.dly_315ns_1.genblk1\_3\_.dly_binary.genblk1\_3\_.delay_unit/in] edgedetect.dly_315ns_1.genblk1\_3\_.dly_binary.genblk1\_4\_.delay_unit/in d_lut_sky130_mm_sc_hd_dlyPoly5ns
Aclkgen.delay_155ns_2.genblk1\_3\_.dly_binary.genblk1\_5\_.delay_unit [clkgen.delay_155ns_2.genblk1\_3\_.dly_binary.genblk1\_5\_.delay_unit/in] clkgen.delay_155ns_2.genblk1\_3\_.dly_binary.genblk1\_6\_.delay_unit/in d_lut_sky130_mm_sc_hd_dlyPoly5ns
Aclkgen.delay_155ns_3.genblk1\_2\_.dly_binary.genblk1\_1\_.delay_unit [clkgen.delay_155ns_3.genblk1\_2\_.dly_binary.genblk1\_1\_.delay_unit/in] clkgen.delay_155ns_3.genblk1\_2\_.dly_binary.genblk1\_2\_.delay_unit/in d_lut_sky130_mm_sc_hd_dlyPoly5ns
Aclkgen.delay_155ns_1.genblk1\_2\_.control_invert [dlycontrol1_in_2_] clkgen.delay_155ns_1.genblk1\_2\_.bypass_enable/B d_lut_sky130_fd_sc_hd__inv_2
Aedgedetect.dly_315ns_1.genblk1\_5\_.dly_binary.genblk1\_22\_.delay_unit [edgedetect.dly_315ns_1.genblk1\_5\_.dly_binary.genblk1\_22\_.delay_unit/in] edgedetect.dly_315ns_1.genblk1\_5\_.dly_binary.genblk1\_23\_.delay_unit/in d_lut_sky130_mm_sc_hd_dlyPoly5ns
Aedgedetect.dly_315ns_1.genblk1\_5\_.dly_binary.genblk1\_27\_.delay_unit [edgedetect.dly_315ns_1.genblk1\_5\_.dly_binary.genblk1\_27\_.delay_unit/in] edgedetect.dly_315ns_1.genblk1\_5\_.dly_binary.genblk1\_28\_.delay_unit/in d_lut_sky130_mm_sc_hd_dlyPoly5ns
Aclkgen.delay_155ns_1.genblk1\_3\_.dly_binary.genblk1\_4\_.delay_unit [clkgen.delay_155ns_1.genblk1\_3\_.dly_binary.genblk1\_4\_.delay_unit/in] clkgen.delay_155ns_1.genblk1\_3\_.dly_binary.genblk1\_5\_.delay_unit/in d_lut_sky130_mm_sc_hd_dlyPoly5ns
Aclkgen.delay_155ns_2.genblk1\_2\_.dly_binary.genblk1\_0\_.delay_unit [clkgen.delay_155ns_2.genblk1\_2\_.dly_binary.and_bypass_switch/X] clkgen.delay_155ns_2.genblk1\_2\_.dly_binary.genblk1\_1\_.delay_unit/in d_lut_sky130_mm_sc_hd_dlyPoly5ns
Aclkgen.clkdig_inverter [clkgen.clkdig_inverter/A] outbuf_1/A d_lut_sky130_fd_sc_hd__inv_2
Aedgedetect.dly_315ns_1.genblk1\_2\_.dly_binary.genblk1\_3\_.delay_unit [edgedetect.dly_315ns_1.genblk1\_2\_.dly_binary.genblk1\_3\_.delay_unit/in] edgedetect.dly_315ns_1.genblk1\_2\_.dly_binary.out_mux/A0 d_lut_sky130_mm_sc_hd_dlyPoly5ns
Aclkgen.delay_155ns_3.genblk1\_1\_.dly_binary.genblk1\_1\_.delay_unit [clkgen.delay_155ns_3.genblk1\_1\_.dly_binary.genblk1\_1\_.delay_unit/in] clkgen.delay_155ns_3.genblk1\_1\_.dly_binary.out_mux/A0 d_lut_sky130_mm_sc_hd_dlyPoly5ns
Aedgedetect.dly_315ns_1.genblk1\_0\_.dly_binary.out_mux [edgedetect.dly_315ns_1.genblk1\_0\_.dly_binary.out_mux/A0 inbuf_2/X edgedetect.dly_315ns_1.genblk1\_0\_.bypass_enable/X] edgedetect.dly_315ns_1.genblk1\_0\_.dly_binary.out_mux/X d_lut_sky130_fd_sc_hd__mux2_1
Aedgedetect.dly_315ns_1.genblk1\_2\_.dly_binary.out_mux [edgedetect.dly_315ns_1.genblk1\_2\_.dly_binary.out_mux/A0 edgedetect.dly_315ns_1.genblk1\_1\_.dly_binary.out_mux/X edgedetect.dly_315ns_1.genblk1\_2\_.bypass_enable/X] edgedetect.dly_315ns_1.genblk1\_2\_.dly_binary.out_mux/X d_lut_sky130_fd_sc_hd__mux2_1
Aedgedetect.dly_315ns_1.genblk1\_0\_.dly_binary.and_bypass_switch [edgedetect.dly_315ns_1.genblk1\_0\_.bypass_enable/X inbuf_2/X] edgedetect.dly_315ns_1.genblk1\_0\_.dly_binary.and_bypass_switch/X d_lut_sky130_fd_sc_hd__and2b_1
Ainbuf_1 [ena_in] inbuf_1/X d_lut_sky130_fd_sc_hd__buf_1
Aedgedetect.dly_315ns_1.genblk1\_4\_.dly_binary.out_mux [edgedetect.dly_315ns_1.genblk1\_4\_.dly_binary.out_mux/A0 edgedetect.dly_315ns_1.genblk1\_3\_.dly_binary.out_mux/X edgedetect.dly_315ns_1.genblk1\_4\_.bypass_enable/X] edgedetect.dly_315ns_1.genblk1\_4\_.dly_binary.out_mux/X d_lut_sky130_fd_sc_hd__mux2_1
Asampledly31 [sampledly31/A] outbuf_3/A d_lut_sky130_fd_sc_hd__dlymetal6s6s_1
Aclkgen.delay_155ns_2.genblk1\_1\_.dly_binary.genblk1\_0\_.delay_unit [clkgen.delay_155ns_2.genblk1\_1\_.dly_binary.and_bypass_switch/X] clkgen.delay_155ns_2.genblk1\_1\_.dly_binary.genblk1\_1\_.delay_unit/in d_lut_sky130_mm_sc_hd_dlyPoly5ns
Aedgedetect.dly_315ns_1.genblk1\_2\_.bypass_enable [edgedetect.dly_315ns_1.enablebuffer/X edgedetect.dly_315ns_1.genblk1\_2\_.bypass_enable/B] edgedetect.dly_315ns_1.genblk1\_2\_.bypass_enable/X d_lut_sky130_fd_sc_hd__and2_1
Aclkgen.delay_155ns_2.genblk1\_3\_.control_invert [dlycontrol2_in_3_] clkgen.delay_155ns_2.genblk1\_3\_.bypass_enable/B d_lut_sky130_fd_sc_hd__inv_2
Aclkgen.delay_155ns_1.genblk1\_4\_.dly_binary.genblk1\_10\_.delay_unit [clkgen.delay_155ns_1.genblk1\_4\_.dly_binary.genblk1\_9\_.delay_unit/out] clkgen.delay_155ns_1.genblk1\_4\_.dly_binary.genblk1\_11\_.delay_unit/in d_lut_sky130_mm_sc_hd_dlyPoly5ns
Aclkgen.delay_155ns_1.genblk1\_3\_.bypass_enable [clkgen.delay_155ns_1.enablebuffer/X clkgen.delay_155ns_1.genblk1\_3\_.bypass_enable/B] clkgen.delay_155ns_1.genblk1\_3\_.bypass_enable/X d_lut_sky130_fd_sc_hd__and2_1
Aclkgen.delay_155ns_2.genblk1\_4\_.bypass_enable [clkgen.delay_155ns_2.enablebuffer/X clkgen.delay_155ns_2.genblk1\_4\_.bypass_enable/B] clkgen.delay_155ns_2.genblk1\_4\_.bypass_enable/X d_lut_sky130_fd_sc_hd__and2_1
Ainbuf_2 [start_conv_in] inbuf_2/X d_lut_sky130_fd_sc_hd__buf_1
Aclkgen.delay_155ns_1.genblk1\_4\_.dly_binary.genblk1\_15\_.delay_unit [clkgen.delay_155ns_1.genblk1\_4\_.dly_binary.genblk1\_15\_.delay_unit/in] clkgen.delay_155ns_1.genblk1\_4\_.dly_binary.out_mux/A0 d_lut_sky130_mm_sc_hd_dlyPoly5ns
Asampledly21 [sampledly21/A] sampledly31/A d_lut_sky130_fd_sc_hd__dlymetal6s6s_1
Asampledly32 [sampledly32/A] outbuf_4/A d_lut_sky130_fd_sc_hd__dlymetal6s6s_1
Aclkgen.delay_155ns_1.genblk1\_0\_.dly_binary.out_mux [clkgen.delay_155ns_1.genblk1\_0\_.dly_binary.out_mux/A0 inbuf_3/X clkgen.delay_155ns_1.genblk1\_0\_.bypass_enable/X] clkgen.delay_155ns_1.genblk1\_0\_.dly_binary.out_mux/X d_lut_sky130_fd_sc_hd__mux2_1
Aclkgen.delay_155ns_1.genblk1\_2\_.dly_binary.out_mux [clkgen.delay_155ns_1.genblk1\_2\_.dly_binary.out_mux/A0 clkgen.delay_155ns_1.genblk1\_1\_.dly_binary.out_mux/X clkgen.delay_155ns_1.genblk1\_2\_.bypass_enable/X] clkgen.delay_155ns_1.genblk1\_2\_.dly_binary.out_mux/X d_lut_sky130_fd_sc_hd__mux2_1
Aclkgen.delay_155ns_1.genblk1\_4\_.dly_binary.out_mux [clkgen.delay_155ns_1.genblk1\_4\_.dly_binary.out_mux/A0 clkgen.delay_155ns_1.genblk1\_3\_.dly_binary.out_mux/X clkgen.delay_155ns_1.genblk1\_4\_.bypass_enable/X] clkgen.clkdig_inverter/A d_lut_sky130_fd_sc_hd__mux2_1
Aedgedetect.dly_315ns_1.genblk1\_1\_.dly_binary.and_bypass_switch [edgedetect.dly_315ns_1.genblk1\_1\_.bypass_enable/X edgedetect.dly_315ns_1.genblk1\_0\_.dly_binary.out_mux/X] edgedetect.dly_315ns_1.genblk1\_1\_.dly_binary.and_bypass_switch/X d_lut_sky130_fd_sc_hd__and2b_1
Aedgedetect.dly_315ns_1.genblk1\_5\_.dly_binary.genblk1\_4\_.delay_unit [edgedetect.dly_315ns_1.genblk1\_5\_.dly_binary.genblk1\_4\_.delay_unit/in] edgedetect.dly_315ns_1.genblk1\_5\_.dly_binary.genblk1\_5\_.delay_unit/in d_lut_sky130_mm_sc_hd_dlyPoly5ns
Aclkgen.delay_155ns_3.genblk1\_4\_.dly_binary.genblk1\_2\_.delay_unit [clkgen.delay_155ns_3.genblk1\_4\_.dly_binary.genblk1\_2\_.delay_unit/in] clkgen.delay_155ns_3.genblk1\_4\_.dly_binary.genblk1\_3\_.delay_unit/in d_lut_sky130_mm_sc_hd_dlyPoly5ns
Aclkgen.delay_155ns_2.genblk1\_0\_.dly_binary.genblk1\_0\_.delay_unit [clkgen.delay_155ns_2.genblk1\_0\_.dly_binary.and_bypass_switch/X] clkgen.delay_155ns_2.genblk1\_0\_.dly_binary.out_mux/A0 d_lut_sky130_mm_sc_hd_dlyPoly5ns
Ainbuf_3 [ndecision_finish_in] inbuf_3/X d_lut_sky130_fd_sc_hd__buf_1
Asampledly33 [sampledly33/A] outbuf_5/A d_lut_sky130_fd_sc_hd__dlymetal6s6s_1
Asampledly11 [sampledly11/A] sampledly21/A d_lut_sky130_fd_sc_hd__dlymetal6s6s_1
Aedgedetect.dly_315ns_1.genblk1\_4\_.control_invert [dlycontrol4_in_4_] edgedetect.dly_315ns_1.genblk1\_4\_.bypass_enable/B d_lut_sky130_fd_sc_hd__inv_2
Asampledly22 [sampledly22/A] sampledly32/A d_lut_sky130_fd_sc_hd__dlymetal6s6s_1
Aedgedetect.dly_315ns_1.genblk1\_5\_.dly_binary.genblk1\_9\_.delay_unit [edgedetect.dly_315ns_1.genblk1\_5\_.dly_binary.genblk1\_9\_.delay_unit/in] edgedetect.dly_315ns_1.genblk1\_5\_.dly_binary.genblk1\_9\_.delay_unit/out d_lut_sky130_mm_sc_hd_dlyPoly5ns
Aclkgen.delay_155ns_2.genblk1\_4\_.dly_binary.genblk1\_13\_.delay_unit [clkgen.delay_155ns_2.genblk1\_4\_.dly_binary.genblk1\_13\_.delay_unit/in] clkgen.delay_155ns_2.genblk1\_4\_.dly_binary.genblk1\_14\_.delay_unit/in d_lut_sky130_mm_sc_hd_dlyPoly5ns
Aclkgen.delay_155ns_3.genblk1\_4\_.dly_binary.genblk1\_7\_.delay_unit [clkgen.delay_155ns_3.genblk1\_4\_.dly_binary.genblk1\_7\_.delay_unit/in] clkgen.delay_155ns_3.genblk1\_4\_.dly_binary.genblk1\_8\_.delay_unit/in d_lut_sky130_mm_sc_hd_dlyPoly5ns
Aclkgen.delay_155ns_2.genblk1\_4\_.dly_binary.genblk1\_1\_.delay_unit [clkgen.delay_155ns_2.genblk1\_4\_.dly_binary.genblk1\_1\_.delay_unit/in] clkgen.delay_155ns_2.genblk1\_4\_.dly_binary.genblk1\_2\_.delay_unit/in d_lut_sky130_mm_sc_hd_dlyPoly5ns
Aclkgen.delay_155ns_3.genblk1\_0\_.bypass_enable [clkgen.delay_155ns_3.enablebuffer/X clkgen.delay_155ns_3.genblk1\_0\_.bypass_enable/B] clkgen.delay_155ns_3.genblk1\_0\_.bypass_enable/X d_lut_sky130_fd_sc_hd__and2_1
Aclkgen.delay_155ns_3.genblk1\_1\_.dly_binary.out_mux [clkgen.delay_155ns_3.genblk1\_1\_.dly_binary.out_mux/A0 clkgen.delay_155ns_3.genblk1\_0\_.dly_binary.out_mux/X clkgen.delay_155ns_3.genblk1\_1\_.bypass_enable/X] clkgen.delay_155ns_3.genblk1\_1\_.dly_binary.out_mux/X d_lut_sky130_fd_sc_hd__mux2_1
Aclkgen.delay_155ns_3.genblk1\_3\_.dly_binary.out_mux [clkgen.delay_155ns_3.genblk1\_3\_.dly_binary.out_mux/A0 clkgen.delay_155ns_3.genblk1\_2\_.dly_binary.out_mux/X clkgen.delay_155ns_3.genblk1\_3\_.bypass_enable/X] clkgen.delay_155ns_3.genblk1\_3\_.dly_binary.out_mux/X d_lut_sky130_fd_sc_hd__mux2_1
Asampledly23 [sampledly23/A] sampledly33/A d_lut_sky130_fd_sc_hd__dlymetal6s6s_1
Asampledly01 [sample_p_in] sampledly11/A d_lut_sky130_fd_sc_hd__dlymetal6s6s_1
Aedgedetect.dly_315ns_1.genblk1\_4\_.dly_binary.genblk1\_4\_.delay_unit [edgedetect.dly_315ns_1.genblk1\_4\_.dly_binary.genblk1\_4\_.delay_unit/in] edgedetect.dly_315ns_1.genblk1\_4\_.dly_binary.genblk1\_5\_.delay_unit/in d_lut_sky130_mm_sc_hd_dlyPoly5ns
Aclkgen.delay_155ns_3.genblk1\_4\_.control_invert [dlycontrol3_in_4_] clkgen.delay_155ns_3.genblk1\_4\_.bypass_enable/B d_lut_sky130_fd_sc_hd__inv_2
Asampledly34 [sampledly34/A] outbuf_6/A d_lut_sky130_fd_sc_hd__dlymetal6s6s_1
Asampledly12 [sampledly12/A] sampledly22/A d_lut_sky130_fd_sc_hd__dlymetal6s6s_1
Aclkgen.delay_155ns_2.genblk1\_4\_.dly_binary.genblk1\_6\_.delay_unit [clkgen.delay_155ns_2.genblk1\_4\_.dly_binary.genblk1\_6\_.delay_unit/in] clkgen.delay_155ns_2.genblk1\_4\_.dly_binary.genblk1\_7\_.delay_unit/in d_lut_sky130_mm_sc_hd_dlyPoly5ns
Aedgedetect.dly_315ns_1.genblk1\_2\_.dly_binary.and_bypass_switch [edgedetect.dly_315ns_1.genblk1\_2\_.bypass_enable/X edgedetect.dly_315ns_1.genblk1\_1\_.dly_binary.out_mux/X] edgedetect.dly_315ns_1.genblk1\_2\_.dly_binary.and_bypass_switch/X d_lut_sky130_fd_sc_hd__and2b_1
Aclkgen.delay_155ns_3.genblk1\_3\_.dly_binary.genblk1\_2\_.delay_unit [clkgen.delay_155ns_3.genblk1\_3\_.dly_binary.genblk1\_2\_.delay_unit/in] clkgen.delay_155ns_3.genblk1\_3\_.dly_binary.genblk1\_3\_.delay_unit/in d_lut_sky130_mm_sc_hd_dlyPoly5ns
Aclkgen.delay_155ns_1.genblk1\_4\_.dly_binary.genblk1\_0\_.delay_unit [clkgen.delay_155ns_1.genblk1\_4\_.dly_binary.and_bypass_switch/X] clkgen.delay_155ns_1.genblk1\_4\_.dly_binary.genblk1\_1\_.delay_unit/in d_lut_sky130_mm_sc_hd_dlyPoly5ns
Aedgedetect.dly_315ns_1.genblk1\_5\_.dly_binary.genblk1\_11\_.delay_unit [edgedetect.dly_315ns_1.genblk1\_5\_.dly_binary.genblk1\_11\_.delay_unit/in] edgedetect.dly_315ns_1.genblk1\_5\_.dly_binary.genblk1\_12\_.delay_unit/in d_lut_sky130_mm_sc_hd_dlyPoly5ns
Aclkgen.delay_155ns_3.genblk1\_4\_.dly_binary.genblk1\_11\_.delay_unit [clkgen.delay_155ns_3.genblk1\_4\_.dly_binary.genblk1\_11\_.delay_unit/in] clkgen.delay_155ns_3.genblk1\_4\_.dly_binary.genblk1\_12\_.delay_unit/in d_lut_sky130_mm_sc_hd_dlyPoly5ns
Aedgedetect.dly_315ns_1.genblk1\_4\_.dly_binary.genblk1\_9\_.delay_unit [edgedetect.dly_315ns_1.genblk1\_4\_.dly_binary.genblk1\_9\_.delay_unit/in] edgedetect.dly_315ns_1.genblk1\_4\_.dly_binary.genblk1\_9\_.delay_unit/out d_lut_sky130_mm_sc_hd_dlyPoly5ns
Aclkgen.delay_155ns_3.genblk1\_3\_.dly_binary.genblk1\_7\_.delay_unit [clkgen.delay_155ns_3.genblk1\_3\_.dly_binary.genblk1\_7\_.delay_unit/in] clkgen.delay_155ns_3.genblk1\_3\_.dly_binary.out_mux/A0 d_lut_sky130_mm_sc_hd_dlyPoly5ns
Aedgedetect.dly_315ns_1.genblk1\_4\_.dly_binary.genblk1\_12\_.delay_unit [edgedetect.dly_315ns_1.genblk1\_4\_.dly_binary.genblk1\_12\_.delay_unit/in] edgedetect.dly_315ns_1.genblk1\_4\_.dly_binary.genblk1\_13\_.delay_unit/in d_lut_sky130_mm_sc_hd_dlyPoly5ns
Aclkgen.delay_155ns_1.genblk1\_4\_.dly_binary.genblk1\_5\_.delay_unit [clkgen.delay_155ns_1.genblk1\_4\_.dly_binary.genblk1\_5\_.delay_unit/in] clkgen.delay_155ns_1.genblk1\_4\_.dly_binary.genblk1\_6\_.delay_unit/in d_lut_sky130_mm_sc_hd_dlyPoly5ns
Asampledly13 [sampledly13/A] sampledly23/A d_lut_sky130_fd_sc_hd__dlymetal6s6s_1
Asampledly24 [sampledly24/A] sampledly34/A d_lut_sky130_fd_sc_hd__dlymetal6s6s_1
Asampledly02 [sample_n_in] sampledly12/A d_lut_sky130_fd_sc_hd__dlymetal6s6s_1
Aclkgen.delay_155ns_2.genblk1\_3\_.dly_binary.genblk1\_1\_.delay_unit [clkgen.delay_155ns_2.genblk1\_3\_.dly_binary.genblk1\_1\_.delay_unit/in] clkgen.delay_155ns_2.genblk1\_3\_.dly_binary.genblk1\_2\_.delay_unit/in d_lut_sky130_mm_sc_hd_dlyPoly5ns
Aedgedetect.dly_315ns_1.genblk1\_5\_.dly_binary.genblk1\_16\_.delay_unit [edgedetect.dly_315ns_1.genblk1\_5\_.dly_binary.genblk1\_16\_.delay_unit/in] edgedetect.dly_315ns_1.genblk1\_5\_.dly_binary.genblk1\_17\_.delay_unit/in d_lut_sky130_mm_sc_hd_dlyPoly5ns
Aclkgen.delay_155ns_1.genblk1\_0\_.control_invert [dlycontrol1_in_0_] clkgen.delay_155ns_1.genblk1\_0\_.bypass_enable/B d_lut_sky130_fd_sc_hd__inv_2
Aedgedetect.dly_315ns_1.genblk1\_3\_.dly_binary.genblk1\_4\_.delay_unit [edgedetect.dly_315ns_1.genblk1\_3\_.dly_binary.genblk1\_4\_.delay_unit/in] edgedetect.dly_315ns_1.genblk1\_3\_.dly_binary.genblk1\_5\_.delay_unit/in d_lut_sky130_mm_sc_hd_dlyPoly5ns
Aclkgen.delay_155ns_2.genblk1\_3\_.dly_binary.genblk1\_6\_.delay_unit [clkgen.delay_155ns_2.genblk1\_3\_.dly_binary.genblk1\_6\_.delay_unit/in] clkgen.delay_155ns_2.genblk1\_3\_.dly_binary.genblk1\_7\_.delay_unit/in d_lut_sky130_mm_sc_hd_dlyPoly5ns
Aclkgen.delay_155ns_3.genblk1\_2\_.dly_binary.genblk1\_2\_.delay_unit [clkgen.delay_155ns_3.genblk1\_2\_.dly_binary.genblk1\_2\_.delay_unit/in] clkgen.delay_155ns_3.genblk1\_2\_.dly_binary.genblk1\_3\_.delay_unit/in d_lut_sky130_mm_sc_hd_dlyPoly5ns
Aedgedetect.dly_315ns_1.genblk1\_5\_.dly_binary.genblk1\_23\_.delay_unit [edgedetect.dly_315ns_1.genblk1\_5\_.dly_binary.genblk1\_23\_.delay_unit/in] edgedetect.dly_315ns_1.genblk1\_5\_.dly_binary.genblk1\_24\_.delay_unit/in d_lut_sky130_mm_sc_hd_dlyPoly5ns
Aedgedetect.dly_315ns_1.genblk1\_3\_.dly_binary.and_bypass_switch [edgedetect.dly_315ns_1.genblk1\_3\_.bypass_enable/X edgedetect.dly_315ns_1.genblk1\_2\_.dly_binary.out_mux/X] edgedetect.dly_315ns_1.genblk1\_3\_.dly_binary.and_bypass_switch/X d_lut_sky130_fd_sc_hd__and2b_1
Asampledly03 [nsample_p_in] sampledly13/A d_lut_sky130_fd_sc_hd__dlymetal6s6s_1
Asampledly14 [sampledly14/A] sampledly24/A d_lut_sky130_fd_sc_hd__dlymetal6s6s_1
Aclkgen.delay_155ns_1.genblk1\_3\_.dly_binary.genblk1\_0\_.delay_unit [clkgen.delay_155ns_1.genblk1\_3\_.dly_binary.and_bypass_switch/X] clkgen.delay_155ns_1.genblk1\_3\_.dly_binary.genblk1\_1\_.delay_unit/in d_lut_sky130_mm_sc_hd_dlyPoly5ns
Aedgedetect.dly_315ns_1.genblk1\_5\_.dly_binary.genblk1\_28\_.delay_unit [edgedetect.dly_315ns_1.genblk1\_5\_.dly_binary.genblk1\_28\_.delay_unit/in] edgedetect.dly_315ns_1.genblk1\_5\_.dly_binary.genblk1\_29\_.delay_unit/in d_lut_sky130_mm_sc_hd_dlyPoly5ns
Aclkgen.delay_155ns_1.genblk1\_3\_.dly_binary.genblk1\_5\_.delay_unit [clkgen.delay_155ns_1.genblk1\_3\_.dly_binary.genblk1\_5\_.delay_unit/in] clkgen.delay_155ns_1.genblk1\_3\_.dly_binary.genblk1\_6\_.delay_unit/in d_lut_sky130_mm_sc_hd_dlyPoly5ns
Aedgedetect.dly_315ns_1.genblk1\_5\_.dly_binary.genblk1\_30\_.delay_unit [edgedetect.dly_315ns_1.genblk1\_5\_.dly_binary.genblk1\_30\_.delay_unit/in] edgedetect.dly_315ns_1.genblk1\_5\_.dly_binary.genblk1\_31\_.delay_unit/in d_lut_sky130_mm_sc_hd_dlyPoly5ns
Aclkgen.delay_155ns_2.genblk1\_2\_.dly_binary.genblk1\_1\_.delay_unit [clkgen.delay_155ns_2.genblk1\_2\_.dly_binary.genblk1\_1\_.delay_unit/in] clkgen.delay_155ns_2.genblk1\_2\_.dly_binary.genblk1\_2\_.delay_unit/in d_lut_sky130_mm_sc_hd_dlyPoly5ns
Asampledly04 [nsample_n_in] sampledly14/A d_lut_sky130_fd_sc_hd__dlymetal6s6s_1
Aedgedetect.dly_315ns_1.enablebuffer [enable_dlycontrol_in] edgedetect.dly_315ns_1.enablebuffer/X d_lut_sky130_fd_sc_hd__buf_4
Aclkgen.delay_155ns_1.genblk1\_2\_.dly_binary.genblk1\_0\_.delay_unit [clkgen.delay_155ns_1.genblk1\_2\_.dly_binary.and_bypass_switch/X] clkgen.delay_155ns_1.genblk1\_2\_.dly_binary.genblk1\_1\_.delay_unit/in d_lut_sky130_mm_sc_hd_dlyPoly5ns
Aedgedetect.dly_315ns_1.genblk1\_4\_.dly_binary.and_bypass_switch [edgedetect.dly_315ns_1.genblk1\_4\_.bypass_enable/X edgedetect.dly_315ns_1.genblk1\_3\_.dly_binary.out_mux/X] edgedetect.dly_315ns_1.genblk1\_4\_.dly_binary.and_bypass_switch/X d_lut_sky130_fd_sc_hd__and2b_1
Aclkgen.delay_155ns_1.enablebuffer [enable_dlycontrol_in] clkgen.delay_155ns_1.enablebuffer/X d_lut_sky130_fd_sc_hd__buf_4
Aedgedetect.dly_315ns_1.genblk1\_3\_.bypass_enable [edgedetect.dly_315ns_1.enablebuffer/X edgedetect.dly_315ns_1.genblk1\_3\_.bypass_enable/B] edgedetect.dly_315ns_1.genblk1\_3\_.bypass_enable/X d_lut_sky130_fd_sc_hd__and2_1
Aclkgen.delay_155ns_2.genblk1\_1\_.control_invert [dlycontrol2_in_1_] clkgen.delay_155ns_2.genblk1\_1\_.bypass_enable/B d_lut_sky130_fd_sc_hd__inv_2
Aclkgen.delay_155ns_2.genblk1\_1\_.dly_binary.genblk1\_1\_.delay_unit [clkgen.delay_155ns_2.genblk1\_1\_.dly_binary.genblk1\_1\_.delay_unit/in] clkgen.delay_155ns_2.genblk1\_1\_.dly_binary.out_mux/A0 d_lut_sky130_mm_sc_hd_dlyPoly5ns
Aclkgen.delay_155ns_1.genblk1\_4\_.bypass_enable [clkgen.delay_155ns_1.enablebuffer/X clkgen.delay_155ns_1.genblk1\_4\_.bypass_enable/B] clkgen.delay_155ns_1.genblk1\_4\_.bypass_enable/X d_lut_sky130_fd_sc_hd__and2_1
Aclkgen.delay_155ns_3.genblk1\_0\_.dly_binary.and_bypass_switch [clkgen.delay_155ns_3.genblk1\_0\_.bypass_enable/X clkgen.nor1/Y] clkgen.delay_155ns_3.genblk1\_0\_.dly_binary.and_bypass_switch/X d_lut_sky130_fd_sc_hd__and2b_1
Aclkgen.delay_155ns_1.genblk1\_4\_.dly_binary.genblk1\_11\_.delay_unit [clkgen.delay_155ns_1.genblk1\_4\_.dly_binary.genblk1\_11\_.delay_unit/in] clkgen.delay_155ns_1.genblk1\_4\_.dly_binary.genblk1\_12\_.delay_unit/in d_lut_sky130_mm_sc_hd_dlyPoly5ns
Aedgedetect.dly_315ns_1.genblk1\_5\_.dly_binary.genblk1\_0\_.delay_unit [edgedetect.dly_315ns_1.genblk1\_5\_.dly_binary.and_bypass_switch/X] edgedetect.dly_315ns_1.genblk1\_5\_.dly_binary.genblk1\_1\_.delay_unit/in d_lut_sky130_mm_sc_hd_dlyPoly5ns
Aclkgen.delay_155ns_1.genblk1\_1\_.dly_binary.genblk1\_0\_.delay_unit [clkgen.delay_155ns_1.genblk1\_1\_.dly_binary.and_bypass_switch/X] clkgen.delay_155ns_1.genblk1\_1\_.dly_binary.genblk1\_1\_.delay_unit/in d_lut_sky130_mm_sc_hd_dlyPoly5ns
Aedgedetect.dly_315ns_1.genblk1\_5\_.dly_binary.and_bypass_switch [edgedetect.dly_315ns_1.genblk1\_5\_.bypass_enable/X edgedetect.dly_315ns_1.genblk1\_4\_.dly_binary.out_mux/X] edgedetect.dly_315ns_1.genblk1\_5\_.dly_binary.and_bypass_switch/X d_lut_sky130_fd_sc_hd__and2b_1
Aedgedetect.dly_315ns_1.genblk1\_5\_.dly_binary.genblk1\_5\_.delay_unit [edgedetect.dly_315ns_1.genblk1\_5\_.dly_binary.genblk1\_5\_.delay_unit/in] edgedetect.dly_315ns_1.genblk1\_5\_.dly_binary.genblk1\_6\_.delay_unit/in d_lut_sky130_mm_sc_hd_dlyPoly5ns
Aedgedetect.dly_315ns_1.genblk1\_2\_.control_invert [dlycontrol4_in_2_] edgedetect.dly_315ns_1.genblk1\_2\_.bypass_enable/B d_lut_sky130_fd_sc_hd__inv_2
Aclkgen.delay_155ns_3.genblk1\_4\_.dly_binary.genblk1\_3\_.delay_unit [clkgen.delay_155ns_3.genblk1\_4\_.dly_binary.genblk1\_3\_.delay_unit/in] clkgen.delay_155ns_3.genblk1\_4\_.dly_binary.genblk1\_4\_.delay_unit/in d_lut_sky130_mm_sc_hd_dlyPoly5ns
Aclkgen.delay_155ns_2.genblk1\_0\_.bypass_enable [clkgen.delay_155ns_2.enablebuffer/X clkgen.delay_155ns_2.genblk1\_0\_.bypass_enable/B] clkgen.delay_155ns_2.genblk1\_0\_.bypass_enable/X d_lut_sky130_fd_sc_hd__and2_1
Aclkgen.delay_155ns_3.genblk1\_1\_.bypass_enable [clkgen.delay_155ns_3.enablebuffer/X clkgen.delay_155ns_3.genblk1\_1\_.bypass_enable/B] clkgen.delay_155ns_3.genblk1\_1\_.bypass_enable/X d_lut_sky130_fd_sc_hd__and2_1
Aclkgen.delay_155ns_3.genblk1\_1\_.dly_binary.and_bypass_switch [clkgen.delay_155ns_3.genblk1\_1\_.bypass_enable/X clkgen.delay_155ns_3.genblk1\_0\_.dly_binary.out_mux/X] clkgen.delay_155ns_3.genblk1\_1\_.dly_binary.and_bypass_switch/X d_lut_sky130_fd_sc_hd__and2b_1
Aclkgen.delay_155ns_3.genblk1\_4\_.dly_binary.genblk1\_8\_.delay_unit [clkgen.delay_155ns_3.genblk1\_4\_.dly_binary.genblk1\_8\_.delay_unit/in] clkgen.delay_155ns_3.genblk1\_4\_.dly_binary.genblk1\_9\_.delay_unit/in d_lut_sky130_mm_sc_hd_dlyPoly5ns
Aclkgen.delay_155ns_2.genblk1\_4\_.dly_binary.genblk1\_14\_.delay_unit [clkgen.delay_155ns_2.genblk1\_4\_.dly_binary.genblk1\_14\_.delay_unit/in] clkgen.delay_155ns_2.genblk1\_4\_.dly_binary.genblk1\_15\_.delay_unit/in d_lut_sky130_mm_sc_hd_dlyPoly5ns
Aclkgen.delay_155ns_2.genblk1\_0\_.dly_binary.and_bypass_switch [clkgen.delay_155ns_2.genblk1\_0\_.bypass_enable/X outbuf_1/A] clkgen.delay_155ns_2.genblk1\_0\_.dly_binary.and_bypass_switch/X d_lut_sky130_fd_sc_hd__and2b_1