* XSpice netlist created from SPICE and liberty sources by spi2xspice.py
* NGSPICE file created from adc_core_digital.ext - technology: sky130A
.subckt adc_core_digital a_VPWR a_VGND a_clk_dig_in a_comparator_in a_config_1_in_0_ a_config_1_in_1_ a_config_1_in_2_ a_config_1_in_3_ a_config_1_in_4_ a_config_1_in_5_ a_config_1_in_6_ a_config_1_in_7_ a_config_1_in_8_ a_config_1_in_9_ a_config_1_in_10_ a_config_1_in_11_ a_config_1_in_12_ a_config_1_in_13_ a_config_1_in_14_ a_config_1_in_15_ a_config_2_in_0_ a_config_2_in_1_ a_config_2_in_2_ a_config_2_in_3_ a_config_2_in_4_ a_config_2_in_5_ a_config_2_in_6_ a_config_2_in_7_ a_config_2_in_8_ a_config_2_in_9_ a_config_2_in_10_ a_config_2_in_11_ a_config_2_in_12_ a_config_2_in_13_ a_config_2_in_14_ a_config_2_in_15_ a_conv_finished_out a_enable_loop_out a_nmatrix_bincap_out_n_0_ a_nmatrix_bincap_out_n_1_ a_nmatrix_bincap_out_n_2_ a_nmatrix_c0_out_n a_nmatrix_col_out_n_0_ a_nmatrix_col_out_n_1_ a_nmatrix_col_out_n_2_ a_nmatrix_col_out_n_3_ a_nmatrix_col_out_n_4_ a_nmatrix_col_out_n_5_ a_nmatrix_col_out_n_6_ a_nmatrix_col_out_n_7_ a_nmatrix_col_out_n_8_ a_nmatrix_col_out_n_9_ a_nmatrix_col_out_n_10_ a_nmatrix_col_out_n_11_ a_nmatrix_col_out_n_12_ a_nmatrix_col_out_n_13_ a_nmatrix_col_out_n_14_ a_nmatrix_col_out_n_15_ a_nmatrix_col_out_n_16_ a_nmatrix_col_out_n_17_ a_nmatrix_col_out_n_18_ a_nmatrix_col_out_n_19_  a_nmatrix_col_out_n_20_ a_nmatrix_col_out_n_21_ a_nmatrix_col_out_n_22_ a_nmatrix_col_out_n_23_ a_nmatrix_col_out_n_24_ a_nmatrix_col_out_n_25_ a_nmatrix_col_out_n_26_ a_nmatrix_col_out_n_27_ a_nmatrix_col_out_n_28_ a_nmatrix_col_out_n_29_  a_nmatrix_col_out_n_30_ a_nmatrix_col_out_n_31_ a_nmatrix_row_out_n_0_ a_nmatrix_row_out_n_1_ a_nmatrix_row_out_n_2_ a_nmatrix_row_out_n_3_ a_nmatrix_row_out_n_4_ a_nmatrix_row_out_n_5_ a_nmatrix_row_out_n_6_ a_nmatrix_row_out_n_7_ a_nmatrix_row_out_n_8_ a_nmatrix_row_out_n_9_  a_nmatrix_row_out_n_10_ a_nmatrix_row_out_n_11_ a_nmatrix_row_out_n_12_ a_nmatrix_row_out_n_13_ a_nmatrix_row_out_n_14_ a_nmatrix_row_out_n_15_ a_nmatrix_rowon_out_n_0_ a_nmatrix_rowon_out_n_1_ a_nmatrix_rowon_out_n_2_ a_nmatrix_rowon_out_n_3_ a_nmatrix_rowon_out_n_4_ a_nmatrix_rowon_out_n_5_ a_nmatrix_rowon_out_n_6_ a_nmatrix_rowon_out_n_7_ a_nmatrix_rowon_out_n_8_ a_nmatrix_rowon_out_n_9_ a_nmatrix_rowon_out_n_10_ a_nmatrix_rowon_out_n_11_ a_nmatrix_rowon_out_n_12_ a_nmatrix_rowon_out_n_13_ a_nmatrix_rowon_out_n_14_ a_nmatrix_rowon_out_n_15_ a_pmatrix_bincap_out_n_0_ a_pmatrix_bincap_out_n_1_ a_pmatrix_bincap_out_n_2_ a_pmatrix_c0_out_n a_pmatrix_col_out_n_0_ a_pmatrix_col_out_n_1_ a_pmatrix_col_out_n_2_ a_pmatrix_col_out_n_3_ a_pmatrix_col_out_n_4_ a_pmatrix_col_out_n_5_ a_pmatrix_col_out_n_6_ a_pmatrix_col_out_n_7_ a_pmatrix_col_out_n_8_ a_pmatrix_col_out_n_9_ a_pmatrix_col_out_n_10_ a_pmatrix_col_out_n_11_ a_pmatrix_col_out_n_12_ a_pmatrix_col_out_n_13_ a_pmatrix_col_out_n_14_ a_pmatrix_col_out_n_15_ a_pmatrix_col_out_n_16_ a_pmatrix_col_out_n_17_ a_pmatrix_col_out_n_18_ a_pmatrix_col_out_n_19_  a_pmatrix_col_out_n_20_ a_pmatrix_col_out_n_21_ a_pmatrix_col_out_n_22_ a_pmatrix_col_out_n_23_ a_pmatrix_col_out_n_24_ a_pmatrix_col_out_n_25_ a_pmatrix_col_out_n_26_ a_pmatrix_col_out_n_27_ a_pmatrix_col_out_n_28_ a_pmatrix_col_out_n_29_  a_pmatrix_col_out_n_30_ a_pmatrix_col_out_n_31_ a_pmatrix_row_out_n_0_ a_pmatrix_row_out_n_1_ a_pmatrix_row_out_n_2_ a_pmatrix_row_out_n_3_ a_pmatrix_row_out_n_4_ a_pmatrix_row_out_n_5_ a_pmatrix_row_out_n_6_ a_pmatrix_row_out_n_7_ a_pmatrix_row_out_n_8_ a_pmatrix_row_out_n_9_ a_pmatrix_row_out_n_10_ a_pmatrix_row_out_n_11_ a_pmatrix_row_out_n_12_ a_pmatrix_row_out_n_13_ a_pmatrix_row_out_n_14_ a_pmatrix_row_out_n_15_ a_pmatrix_rowon_out_n_0_ a_pmatrix_rowon_out_n_1_ a_pmatrix_rowon_out_n_2_ a_pmatrix_rowon_out_n_3_ a_pmatrix_rowon_out_n_4_ a_pmatrix_rowon_out_n_5_ a_pmatrix_rowon_out_n_6_ a_pmatrix_rowon_out_n_7_ a_pmatrix_rowon_out_n_8_ a_pmatrix_rowon_out_n_9_ a_pmatrix_rowon_out_n_10_ a_pmatrix_rowon_out_n_11_ a_pmatrix_rowon_out_n_12_ a_pmatrix_rowon_out_n_13_ a_pmatrix_rowon_out_n_14_ a_pmatrix_rowon_out_n_15_ a_result_out_0_ a_result_out_1_ a_result_out_2_ a_result_out_3_ a_result_out_4_ a_result_out_5_ a_result_out_6_ a_result_out_7_ a_result_out_8_ a_result_out_9_ a_result_out_10_ a_result_out_11_ a_result_out_12_ a_result_out_13_ a_result_out_14_ a_result_out_15_ a_rst_n a_sample_matrix_out a_sample_matrix_out_n a_sample_switch_out a_sample_switch_out_n a_nmatrix_rowoff_out_n_0_ a_nmatrix_rowoff_out_n_1_ a_nmatrix_rowoff_out_n_2_ a_nmatrix_rowoff_out_n_3_ a_nmatrix_rowoff_out_n_4_ a_nmatrix_rowoff_out_n_5_ a_nmatrix_rowoff_out_n_6_ a_nmatrix_rowoff_out_n_7_ a_nmatrix_rowoff_out_n_8_ a_nmatrix_rowoff_out_n_9_ a_nmatrix_rowoff_out_n_10_ a_nmatrix_rowoff_out_n_11_ a_nmatrix_rowoff_out_n_12_ a_nmatrix_rowoff_out_n_13_ a_nmatrix_rowoff_out_n_14_ a_nmatrix_rowoff_out_n_15_ a_nmatrix_col_out_0_ a_nmatrix_col_out_1_ a_nmatrix_col_out_2_ a_nmatrix_col_out_3_ a_nmatrix_col_out_4_ a_nmatrix_col_out_5_ a_nmatrix_col_out_6_ a_nmatrix_col_out_7_ a_nmatrix_col_out_8_ a_nmatrix_col_out_9_ a_nmatrix_col_out_10_ a_nmatrix_col_out_11_ a_nmatrix_col_out_12_ a_nmatrix_col_out_13_ a_nmatrix_col_out_14_ a_nmatrix_col_out_15_ a_nmatrix_col_out_16_ a_nmatrix_col_out_17_ a_nmatrix_col_out_18_ a_nmatrix_col_out_19_  a_nmatrix_col_out_20_ a_nmatrix_col_out_21_ a_nmatrix_col_out_22_ a_nmatrix_col_out_23_ a_nmatrix_col_out_24_ a_nmatrix_col_out_25_ a_nmatrix_col_out_26_ a_nmatrix_col_out_27_ a_nmatrix_col_out_28_ a_nmatrix_col_out_29_  a_nmatrix_col_out_30_ a_nmatrix_col_out_31_ a_pmatrix_rowoff_out_n_0_ a_pmatrix_rowoff_out_n_1_ a_pmatrix_rowoff_out_n_2_ a_pmatrix_rowoff_out_n_3_ a_pmatrix_rowoff_out_n_4_ a_pmatrix_rowoff_out_n_5_ a_pmatrix_rowoff_out_n_6_ a_pmatrix_rowoff_out_n_7_ a_pmatrix_rowoff_out_n_8_ a_pmatrix_rowoff_out_n_9_ a_pmatrix_rowoff_out_n_10_ a_pmatrix_rowoff_out_n_11_ a_pmatrix_rowoff_out_n_12_ a_pmatrix_rowoff_out_n_13_ a_pmatrix_rowoff_out_n_14_ a_pmatrix_rowoff_out_n_15_ a_pmatrix_col_out_0_ a_pmatrix_col_out_1_ a_pmatrix_col_out_2_ a_pmatrix_col_out_3_ a_pmatrix_col_out_4_ a_pmatrix_col_out_5_ a_pmatrix_col_out_6_ a_pmatrix_col_out_7_ a_pmatrix_col_out_8_ a_pmatrix_col_out_9_ a_pmatrix_col_out_10_ a_pmatrix_col_out_11_ a_pmatrix_col_out_12_ a_pmatrix_col_out_13_ a_pmatrix_col_out_14_ a_pmatrix_col_out_15_ a_pmatrix_col_out_16_ a_pmatrix_col_out_17_ a_pmatrix_col_out_18_ a_pmatrix_col_out_19_  a_pmatrix_col_out_20_ a_pmatrix_col_out_21_ a_pmatrix_col_out_22_ a_pmatrix_col_out_23_ a_pmatrix_col_out_24_ a_pmatrix_col_out_25_ a_pmatrix_col_out_26_ a_pmatrix_col_out_27_ a_pmatrix_col_out_28_ a_pmatrix_col_out_29_  a_pmatrix_col_out_30_ a_pmatrix_col_out_31_ 
A_1270_ [_0695_ _0673_ _0680_] net62 d_lut_sky130_fd_sc_hd__a21o_1
A_0985_ [_0434_ _0482_ _0485_ _0486_] _0487_ d_lut_sky130_fd_sc_hd__a22o_2
A_1606_ [_0621_ _0673_ _0680_] net30 d_lut_sky130_fd_sc_hd__a21oi_4
A_1537_ [_0679_ _0680_ _0681_] _0157_ d_lut_sky130_fd_sc_hd__or3b_1
A_1468_ [_0137_] net80 d_lut_sky130_fd_sc_hd__buf_2
A_1399_ [osr.result_r\_14\_ _0092_ osr.result_r\_15\_] _0094_ d_lut_sky130_fd_sc_hd__a21bo_1
A_0770_ [osr.sample_count_r\_1\_ osr.sample_count_r\_3\_ osr.sample_count_r\_5\_ osr.sample_count_r\_7\_] _0295_ d_lut_sky130_fd_sc_hd__or4_2
A_1322_ [_0742_ _0743_ _0744_ _0745_] _0746_ d_lut_sky130_fd_sc_hd__or4_1
A_1253_ [_0479_ _0609_ _0618_ _0622_] _0699_ d_lut_sky130_fd_sc_hd__a31o_1
A_1184_ [_0633_ _0659_ _0646_] net135 d_lut_sky130_fd_sc_hd__a21o_2
A_0968_ [_0453_ _0470_ _0443_] _0471_ d_lut_sky130_fd_sc_hd__o21a_2
A_0899_ [cnb.shift_register_r\_14\_ _0364_ cnb.shift_register_r\_15\_] _0409_ d_lut_sky130_fd_sc_hd__o21a_1
Aoutput231 [net231] pmatrix_rowon_out_n_3_ d_lut_sky130_fd_sc_hd__buf_2
Aoutput220 [net220] pmatrix_rowoff_out_n_7_ d_lut_sky130_fd_sc_hd__buf_2
Aoutput253 [net253] result_out_9_ d_lut_sky130_fd_sc_hd__buf_2
Aoutput242 [net242] result_out_13_ d_lut_sky130_fd_sc_hd__buf_2
A_1871_ _0033_ net263 NULL ~net279 net239 NULL ddflop
A_0822_ [_0341_] _0345_ d_lut_sky130_fd_sc_hd__clkbuf_4
A_1305_ [cnb.result_out\_5\_ osr.result_r\_5\_] _0730_ d_lut_sky130_fd_sc_hd__or2_1
A_1236_ [_0643_ _0681_ _0614_ _0615_] net72 d_lut_sky130_fd_sc_hd__a211oi_4
A_1167_ [_0622_] _0648_ d_lut_sky130_fd_sc_hd__buf_4
A_1098_ [_0588_ _0589_] _0590_ d_lut_sky130_fd_sc_hd__nor2_1
A_1021_ [_0520_ _0378_ _0381_ _0369_] _0521_ d_lut_sky130_fd_sc_hd__or4_1
A_1923_ [net118] net210 d_lut_sky130_fd_sc_hd__clkbuf_1
A_1854_ osr.next_result_w\_13\_ net267 NULL ~net278 osr.result_r\_13\_ NULL ddflop
A_0805_ [cnb.sampled_avg_control_r\_1\_] _0329_ d_lut_sky130_fd_sc_hd__inv_2
A_1785_ [cnb.result_out\_8\_ _0286_] _0288_ d_lut_sky130_fd_sc_hd__and2_1
A_1219_ [_0588_ _0597_ _0628_] _0684_ d_lut_sky130_fd_sc_hd__or3_1
A_1570_ [_0165_] net81 d_lut_sky130_fd_sc_hd__clkbuf_2
A_1004_ [_0504_] _0505_ d_lut_sky130_fd_sc_hd__clkbuf_4
A_1906_ [net84] net199 d_lut_sky130_fd_sc_hd__clkbuf_1
A_1837_ _0019_ net284 NULL ~net269 cnb.shift_register_r\_13\_ NULL ddflop
A_1768_ [cnb.result_out\_0\_ cnb.next_data_register_w\_0\_ _0184_] _0279_ d_lut_sky130_fd_sc_hd__mux2_1
A_1699_ [_0754_ _0206_ _0220_ _0309_ _0221_] _0222_ d_lut_sky130_fd_sc_hd__a221o_1
Aoutput20 [net20] nmatrix_col_out_14_ d_lut_sky130_fd_sc_hd__buf_2
Aoutput31 [net31] nmatrix_col_out_24_ d_lut_sky130_fd_sc_hd__buf_2
Aoutput42 [net42] nmatrix_col_out_5_ d_lut_sky130_fd_sc_hd__buf_2
Aoutput64 [net64] nmatrix_col_out_n_25_ d_lut_sky130_fd_sc_hd__buf_2
Aoutput53 [net53] nmatrix_col_out_n_15_ d_lut_sky130_fd_sc_hd__buf_2
Aoutput75 [net75] nmatrix_col_out_n_6_ d_lut_sky130_fd_sc_hd__buf_2
Aoutput86 [net86] nmatrix_row_out_n_1_ d_lut_sky130_fd_sc_hd__buf_2
Aoutput97 [net97] nmatrix_rowoff_out_n_12_ d_lut_sky130_fd_sc_hd__buf_2
A_1622_ [_0125_ _0132_] _0174_ d_lut_sky130_fd_sc_hd__or2_1
A_1553_ [_0162_] net102 d_lut_sky130_fd_sc_hd__clkbuf_1
A_1484_ [_0144_] net91 d_lut_sky130_fd_sc_hd__clkbuf_4
A_0984_ [_0481_ _0371_] _0486_ d_lut_sky130_fd_sc_hd__nor2_1
A_1605_ [_0635_ _0670_ _0674_] net29 d_lut_sky130_fd_sc_hd__o21a_2
A_1536_ [_0648_ _0596_ _0634_ _0669_] net144 d_lut_sky130_fd_sc_hd__o211a_2
A_1467_ [_0613_ _0121_ _0136_] _0137_ d_lut_sky130_fd_sc_hd__or3_1
A_1398_ [_0300_ _0093_] osr.next_result_w\_14\_ d_lut_sky130_fd_sc_hd__nor2_1
A_1321_ [cnb.result_out\_6\_ osr.result_r\_6\_] _0745_ d_lut_sky130_fd_sc_hd__and2_1
A_1252_ [_0651_ _0698_ _0697_] net50 d_lut_sky130_fd_sc_hd__a21o_1
A_1183_ [_0658_] _0659_ d_lut_sky130_fd_sc_hd__buf_4
A_0967_ [_0438_ _0447_] _0470_ d_lut_sky130_fd_sc_hd__nand2_1
Aoutput210 [net210] pmatrix_rowoff_out_n_12_ d_lut_sky130_fd_sc_hd__buf_2
A_0898_ [cnb.shift_register_r\_14\_ _0364_] _0408_ d_lut_sky130_fd_sc_hd__xnor2_1
Aoutput232 [net232] pmatrix_rowon_out_n_4_ d_lut_sky130_fd_sc_hd__buf_2
Aoutput221 [net221] pmatrix_rowoff_out_n_8_ d_lut_sky130_fd_sc_hd__buf_2
Aoutput243 [net243] result_out_14_ d_lut_sky130_fd_sc_hd__buf_2
Aoutput254 [net261] sample_matrix_out d_lut_sky130_fd_sc_hd__buf_2
A_1519_ [_0590_ _0629_ _0632_] net156 d_lut_sky130_fd_sc_hd__o21a_1
A_1870_ _0032_ net262 NULL ~net274 net253 NULL ddflop
A_0821_ [net2 _0344_] cnb.next_average_sum_w\_0\_ d_lut_sky130_fd_sc_hd__xnor2_1
A_1304_ [_0729_] osr.next_result_w\_4\_ d_lut_sky130_fd_sc_hd__inv_2
A_1235_ [_0688_ _0608_ _0592_] net69 d_lut_sky130_fd_sc_hd__a21o_1
A_1166_ [_0492_ _0644_ _0645_ _0646_ _0647_] net162 d_lut_sky130_fd_sc_hd__o221ai_4
A_1097_ [_0487_ _0490_] _0589_ d_lut_sky130_fd_sc_hd__xnor2_2
A_1020_ [_0403_] _0520_ d_lut_sky130_fd_sc_hd__clkinv_2
A_1922_ [net123] net220 d_lut_sky130_fd_sc_hd__clkbuf_1
A_1853_ osr.next_result_w\_12\_ net266 NULL ~net278 osr.result_r\_12\_ NULL ddflop
A_0804_ [cnb.sampled_avg_control_r\_0\_] _0328_ d_lut_sky130_fd_sc_hd__inv_2
A_1784_ [_0507_ _0532_ _0286_ _0287_] _0046_ d_lut_sky130_fd_sc_hd__o31ai_1
A_1218_ [_0662_ _0677_ _0630_] _0683_ d_lut_sky130_fd_sc_hd__o21ai_1
A_1149_ [_0610_ _0634_] net189 d_lut_sky130_fd_sc_hd__nand2_2
A_1003_ [_0496_ _0503_] _0504_ d_lut_sky130_fd_sc_hd__xor2_1
A_1905_ [net85] net192 d_lut_sky130_fd_sc_hd__clkbuf_1
A_1836_ _0018_ net283 NULL ~net269 cnb.shift_register_r\_12\_ NULL ddflop
A_1767_ [cnb.result_out\_11\_ _0205_ _0275_ _0278_] _0038_ d_lut_sky130_fd_sc_hd__a211o_1
A_1698_ [_0214_ osr.next_result_w\_2\_ _0208_] _0221_ d_lut_sky130_fd_sc_hd__o21ai_1
Aoutput43 [net43] nmatrix_col_out_6_ d_lut_sky130_fd_sc_hd__buf_2
Aoutput21 [net21] nmatrix_col_out_15_ d_lut_sky130_fd_sc_hd__buf_2
Aoutput32 [net32] nmatrix_col_out_25_ d_lut_sky130_fd_sc_hd__buf_2
Aoutput10 [net10] conv_finished_out d_lut_sky130_fd_sc_hd__buf_2
Aoutput76 [net76] nmatrix_col_out_n_7_ d_lut_sky130_fd_sc_hd__buf_2
Aoutput65 [net65] nmatrix_col_out_n_26_ d_lut_sky130_fd_sc_hd__buf_2
Aoutput54 [net54] nmatrix_col_out_n_16_ d_lut_sky130_fd_sc_hd__buf_2
Aoutput98 [net98] nmatrix_rowoff_out_n_13_ d_lut_sky130_fd_sc_hd__buf_2
Aoutput87 [net87] nmatrix_row_out_n_2_ d_lut_sky130_fd_sc_hd__buf_2
A_1621_ [_0139_ _0133_ _0140_] net119 d_lut_sky130_fd_sc_hd__o21a_1
A_1552_ [_0565_ net259] _0162_ d_lut_sky130_fd_sc_hd__or2_1
A_1483_ [_0613_ _0121_ _0142_] _0144_ d_lut_sky130_fd_sc_hd__or3_1
A_1819_ osr.next_sample_count_w\_4\_ net267 NULL ~net278 osr.sample_count_r\_4\_ NULL ddflop
A_0983_ [_0381_ _0433_ _0484_] _0485_ d_lut_sky130_fd_sc_hd__o21ai_1
A_1604_ [_0621_ _0672_ _0705_ _0648_] net28 d_lut_sky130_fd_sc_hd__o22ai_4
A_1535_ [_0635_ _0674_ _0675_] net143 d_lut_sky130_fd_sc_hd__a21oi_2
A_1466_ [cnb.data_register_r\_10\_ _0570_ _0580_ _0135_] _0136_ d_lut_sky130_fd_sc_hd__a31oi_4
A_1397_ [osr.result_r\_14\_ _0092_] _0093_ d_lut_sky130_fd_sc_hd__xnor2_1
A_1320_ [cnb.result_out\_6\_ osr.result_r\_6\_] _0744_ d_lut_sky130_fd_sc_hd__nor2_1
A_1251_ [_0616_ _0618_ _0663_ _0622_] _0698_ d_lut_sky130_fd_sc_hd__a31o_1
A_1182_ [_0504_ _0547_ _0548_] _0658_ d_lut_sky130_fd_sc_hd__and3_1
A_0966_ [cnb.data_register_r\_4\_ _0468_] _0469_ d_lut_sky130_fd_sc_hd__xnor2_4
Aoutput200 [net200] pmatrix_row_out_n_2_ d_lut_sky130_fd_sc_hd__buf_2
A_0897_ [cnb.shift_register_r\_15\_] _0407_ d_lut_sky130_fd_sc_hd__inv_2
Aoutput222 [net222] pmatrix_rowoff_out_n_9_ d_lut_sky130_fd_sc_hd__buf_2
Aoutput244 [net244] result_out_15_ d_lut_sky130_fd_sc_hd__buf_2
Aoutput233 [net233] pmatrix_rowon_out_n_5_ d_lut_sky130_fd_sc_hd__buf_2
Aoutput211 [net211] pmatrix_rowoff_out_n_13_ d_lut_sky130_fd_sc_hd__buf_2
Aoutput255 [net255] sample_matrix_out_n d_lut_sky130_fd_sc_hd__buf_2
A_1518_ [_0695_ _0625_ _0626_] net155 d_lut_sky130_fd_sc_hd__o21a_2
A_1449_ [_0125_] net112 d_lut_sky130_fd_sc_hd__buf_6
A_0820_ [cnb.average_sum_r\_0\_ _0343_] _0344_ d_lut_sky130_fd_sc_hd__nand2_1
A_1303_ [_0721_ _0728_] _0729_ d_lut_sky130_fd_sc_hd__xnor2_2
A_1234_ [net160 _0605_] net58 d_lut_sky130_fd_sc_hd__nor2_1
A_1165_ [_0492_ _0622_ _0606_] _0647_ d_lut_sky130_fd_sc_hd__or3_4
A_1096_ [_0469_ _0478_] _0588_ d_lut_sky130_fd_sc_hd__xor2_4
A_0949_ [_0451_ _0452_] _0453_ d_lut_sky130_fd_sc_hd__nand2_1
A_1921_ [net258] net217 d_lut_sky130_fd_sc_hd__clkbuf_1
A_1852_ osr.next_result_w\_11\_ net266 NULL ~net278 osr.result_r\_11\_ NULL ddflop
A_0803_ [_0324_ _0325_ _0326_] _0327_ d_lut_sky130_fd_sc_hd__and3b_1
A_1783_ [cnb.result_out\_7\_ _0286_] _0287_ d_lut_sky130_fd_sc_hd__nand2_1
A_1217_ [_0643_ _0623_] _0682_ d_lut_sky130_fd_sc_hd__nand2_1
A_1148_ [_0609_ _0531_ _0633_] _0634_ d_lut_sky130_fd_sc_hd__or3_1
A_1079_ [_0380_] _0575_ d_lut_sky130_fd_sc_hd__inv_2
A_1002_ [_0471_ _0498_ _0499_ _0502_] _0503_ d_lut_sky130_fd_sc_hd__a31o_2
A_1835_ _0017_ net284 NULL ~net269 cnb.shift_register_r\_11\_ NULL ddflop
A_1766_ [osr.next_result_w\_19\_ _0215_ _0276_ _0312_ _0277_] _0278_ d_lut_sky130_fd_sc_hd__o221a_1
A_1697_ [_0729_ _0741_ osr.osr_mode_r\_0\_] _0220_ d_lut_sky130_fd_sc_hd__mux2_1
Aoutput22 [net22] nmatrix_col_out_16_ d_lut_sky130_fd_sc_hd__buf_2
Aoutput11 [net260] enable_loop_out d_lut_sky130_fd_sc_hd__buf_2
Aoutput33 [net33] nmatrix_col_out_26_ d_lut_sky130_fd_sc_hd__buf_2
Aoutput66 [net66] nmatrix_col_out_n_27_ d_lut_sky130_fd_sc_hd__buf_2
Aoutput55 [net55] nmatrix_col_out_n_17_ d_lut_sky130_fd_sc_hd__buf_2
Aoutput44 [net44] nmatrix_col_out_7_ d_lut_sky130_fd_sc_hd__buf_2
Aoutput88 [net88] nmatrix_row_out_n_3_ d_lut_sky130_fd_sc_hd__buf_2
Aoutput77 [net77] nmatrix_col_out_n_8_ d_lut_sky130_fd_sc_hd__buf_2
Aoutput99 [net99] nmatrix_rowoff_out_n_14_ d_lut_sky130_fd_sc_hd__buf_2
A_1620_ [_0688_ _0566_ net259] net226 d_lut_sky130_fd_sc_hd__a21o_1
A_1551_ [_0619_ _0566_ net259] net117 d_lut_sky130_fd_sc_hd__a21oi_1
A_1482_ [_0580_ _0581_] net221 d_lut_sky130_fd_sc_hd__xor2_4
A_1818_ osr.next_sample_count_w\_3\_ net265 NULL ~net274 osr.sample_count_r\_3\_ NULL ddflop
A_1749_ [net242 _0211_ _0201_] _0263_ d_lut_sky130_fd_sc_hd__and3_1
A_0982_ [cnb.shift_register_r\_8\_ _0362_ _0361_ _0483_] _0484_ d_lut_sky130_fd_sc_hd__or4_1
A_1603_ [_0660_ _0659_ _0704_] net27 d_lut_sky130_fd_sc_hd__a21oi_2
A_1534_ [_0695_ _0672_ _0673_] net142 d_lut_sky130_fd_sc_hd__o21a_1
A_1465_ [cnb.data_register_r\_10\_ _0570_ _0580_] _0135_ d_lut_sky130_fd_sc_hd__nor3_1
A_1396_ [_0082_ _0085_ osr.result_r\_12\_ osr.result_r\_13\_] _0092_ d_lut_sky130_fd_sc_hd__o211a_1
A_1250_ [_0646_ _0623_ _0645_ _0492_ _0697_] net49 d_lut_sky130_fd_sc_hd__a221o_1
A_1181_ [net134] net166 d_lut_sky130_fd_sc_hd__clkinv_2
A_0965_ [_0465_ _0467_ _0371_] _0468_ d_lut_sky130_fd_sc_hd__a21oi_4
A_0896_ [_0363_ _0405_ _0361_] _0406_ d_lut_sky130_fd_sc_hd__a21o_1
Aoutput201 [net201] pmatrix_row_out_n_3_ d_lut_sky130_fd_sc_hd__buf_2
Aoutput212 [net212] pmatrix_rowoff_out_n_14_ d_lut_sky130_fd_sc_hd__buf_2
Aoutput234 [net234] pmatrix_rowon_out_n_6_ d_lut_sky130_fd_sc_hd__buf_2
Aoutput223 [net223] pmatrix_rowon_out_n_0_ d_lut_sky130_fd_sc_hd__buf_2
Aoutput256 [net256] sample_switch_out d_lut_sky130_fd_sc_hd__buf_2
Aoutput245 [net245] result_out_1_ d_lut_sky130_fd_sc_hd__buf_2
A_1517_ [_0660_ _0629_ _0611_ _0606_ _0610_] net154 d_lut_sky130_fd_sc_hd__o221a_2
A_1448_ [_0122_] _0127_ d_lut_sky130_fd_sc_hd__buf_6
A_1379_ [osr.result_r\_10\_ cnb.result_out\_10\_] _0077_ d_lut_sky130_fd_sc_hd__nand2_1
A_1302_ [_0299_ _0726_ _0727_] _0728_ d_lut_sky130_fd_sc_hd__or3b_1
A_1233_ [_0609_ _0531_ _0633_ _0594_] net184 d_lut_sky130_fd_sc_hd__a31oi_4
A_1164_ [_0531_] _0646_ d_lut_sky130_fd_sc_hd__buf_4
A_1095_ [_0587_] net47 d_lut_sky130_fd_sc_hd__buf_4
A_0948_ [cnb.shift_register_r\_6\_ _0418_ _0427_] _0452_ d_lut_sky130_fd_sc_hd__or3_1
A_0879_ [cnb.average_sum_r\_2\_ net2 cnb.sampled_avg_control_r\_2\_] _0390_ d_lut_sky130_fd_sc_hd__mux2_1
Afanout280 [net9] net280 d_lut_sky130_fd_sc_hd__buf_2
A_1920_ [net79] net198 d_lut_sky130_fd_sc_hd__clkbuf_1
A_1851_ osr.next_result_w\_10\_ net264 NULL ~net276 osr.result_r\_10\_ NULL ddflop
A_0802_ [cnb.shift_register_r\_3\_] _0326_ d_lut_sky130_fd_sc_hd__inv_2
A_1782_ [cnb.shift_register_r\_2\_ _0340_] _0286_ d_lut_sky130_fd_sc_hd__nand2_2
A_1216_ [_0679_ _0680_ _0681_] net177 d_lut_sky130_fd_sc_hd__nor3b_2
A_1147_ [_0584_] _0633_ d_lut_sky130_fd_sc_hd__buf_4
A_1078_ [cnb.data_register_r\_11\_] _0574_ d_lut_sky130_fd_sc_hd__inv_2
A_1001_ [_0500_ _0501_] _0502_ d_lut_sky130_fd_sc_hd__and2_2
A_1834_ _0016_ net284 NULL ~net269 cnb.shift_register_r\_10\_ NULL ddflop
A_1765_ [_0214_ osr.next_result_w\_13\_ _0322_] _0277_ d_lut_sky130_fd_sc_hd__o21a_1
A_1696_ [cnb.result_out\_0\_ _0205_ _0218_] _0219_ d_lut_sky130_fd_sc_hd__a21oi_1
Aoutput34 [net34] nmatrix_col_out_27_ d_lut_sky130_fd_sc_hd__buf_2
Aoutput12 [net12] nmatrix_bincap_out_n_0_ d_lut_sky130_fd_sc_hd__buf_2
Aoutput23 [net23] nmatrix_col_out_17_ d_lut_sky130_fd_sc_hd__buf_2
Aoutput67 [net67] nmatrix_col_out_n_28_ d_lut_sky130_fd_sc_hd__buf_2
Aoutput45 [net45] nmatrix_col_out_8_ d_lut_sky130_fd_sc_hd__buf_2
Aoutput56 [net56] nmatrix_col_out_n_18_ d_lut_sky130_fd_sc_hd__buf_2
Aoutput78 [net78] nmatrix_col_out_n_9_ d_lut_sky130_fd_sc_hd__buf_2
Aoutput89 [net89] nmatrix_row_out_n_4_ d_lut_sky130_fd_sc_hd__buf_2
A_1550_ [_0161_] net101 d_lut_sky130_fd_sc_hd__clkbuf_1
A_1481_ [_0143_] net92 d_lut_sky130_fd_sc_hd__buf_2
A_1817_ osr.next_sample_count_w\_2\_ net267 NULL ~net274 osr.sample_count_r\_2\_ NULL ddflop
A_1748_ [cnb.result_out\_8\_ _0205_ _0259_ _0262_] _0035_ d_lut_sky130_fd_sc_hd__a211o_1
A_1679_ [_0202_ _0204_ _0205_] _0023_ d_lut_sky130_fd_sc_hd__a21oi_1
A_0981_ [cnb.shift_register_r\_9\_ cnb.shift_register_r\_11\_] _0483_ d_lut_sky130_fd_sc_hd__xnor2_1
A_1602_ [_0603_ _0702_ _0703_] net25 d_lut_sky130_fd_sc_hd__o21a_2
A_1533_ [_0635_ _0670_ _0671_] net141 d_lut_sky130_fd_sc_hd__o21ai_4
A_1464_ [_0134_] net216 d_lut_sky130_fd_sc_hd__clkbuf_1
A_1395_ [_0090_ _0091_ _0300_] osr.next_result_w\_13\_ d_lut_sky130_fd_sc_hd__a21oi_2
A_1180_ [_0616_ _0624_ _0633_ _0646_] net134 d_lut_sky130_fd_sc_hd__a31o_2
A_0964_ [cnb.shift_register_r\_9\_ _0466_ _0361_ _0376_] _0467_ d_lut_sky130_fd_sc_hd__or4b_1
A_0895_ [cnb.shift_register_r\_9\_ cnb.shift_register_r\_8\_ _0362_ cnb.shift_register_r\_11\_] _0405_ d_lut_sky130_fd_sc_hd__or4b_4
Aoutput202 [net202] pmatrix_row_out_n_4_ d_lut_sky130_fd_sc_hd__buf_2
Aoutput224 [net224] pmatrix_rowon_out_n_10_ d_lut_sky130_fd_sc_hd__buf_2
Aoutput213 [net213] pmatrix_rowoff_out_n_15_ d_lut_sky130_fd_sc_hd__buf_2
Aoutput235 [net235] pmatrix_rowon_out_n_7_ d_lut_sky130_fd_sc_hd__buf_2
Aoutput246 [net246] result_out_2_ d_lut_sky130_fd_sc_hd__buf_2
A_1516_ [_0155_] net153 d_lut_sky130_fd_sc_hd__clkbuf_1
Aoutput257 [net257] sample_switch_out_n d_lut_sky130_fd_sc_hd__buf_2
A_1447_ [_0126_] net84 d_lut_sky130_fd_sc_hd__clkbuf_2
A_1378_ [_0076_] osr.next_result_w\_11\_ d_lut_sky130_fd_sc_hd__inv_2
A_1301_ [osr.result_r\_4\_ _0725_] _0727_ d_lut_sky130_fd_sc_hd__nand2_1
A_1232_ [_0592_ net71] net183 d_lut_sky130_fd_sc_hd__nor2_1
A_1163_ [_0597_ _0594_] _0645_ d_lut_sky130_fd_sc_hd__nor2_4
A_1094_ [_0505_ _0585_ _0586_ _0549_] _0587_ d_lut_sky130_fd_sc_hd__o31a_1
A_0947_ [_0449_ _0450_ _0371_] _0451_ d_lut_sky130_fd_sc_hd__a21o_1
A_0878_ [net2 cnb.average_sum_r\_4\_ cnb.sampled_avg_control_r\_2\_] _0389_ d_lut_sky130_fd_sc_hd__mux2_1
Afanout281 [net282] net281 d_lut_sky130_fd_sc_hd__clkbuf_2
Afanout270 [net271] net270 d_lut_sky130_fd_sc_hd__clkbuf_2
A_1850_ osr.next_result_w\_9\_ net264 NULL ~net276 osr.result_r\_9\_ NULL ddflop
A_0801_ [cnb.shift_register_r\_2\_] _0325_ d_lut_sky130_fd_sc_hd__inv_2
A_1781_ [_0285_] _0045_ d_lut_sky130_fd_sc_hd__clkbuf_1
A_1215_ [_0597_ _0598_ _0663_] _0681_ d_lut_sky130_fd_sc_hd__or3b_2
A_1146_ [_0590_ _0629_ _0632_] net188 d_lut_sky130_fd_sc_hd__o21ai_2
A_1077_ [_0572_ _0573_ net260] cnb.next_data_register_w\_10\_ d_lut_sky130_fd_sc_hd__o21a_1
A_1000_ [cnb.data_register_r\_4\_ _0468_ _0485_ _0486_] _0501_ d_lut_sky130_fd_sc_hd__a22o_1
A_1833_ _0015_ net284 NULL ~net269 cnb.shift_register_r\_9\_ NULL ddflop
A_1764_ [osr.next_result_w\_15\_ osr.next_result_w\_17\_ osr.osr_mode_r\_0\_] _0276_ d_lut_sky130_fd_sc_hd__mux2_1
A_1695_ [net248 _0211_ _0201_] _0218_ d_lut_sky130_fd_sc_hd__and3_1
A_1129_ [_0549_] _0618_ d_lut_sky130_fd_sc_hd__buf_2
Aoutput13 [net13] nmatrix_bincap_out_n_1_ d_lut_sky130_fd_sc_hd__buf_2
Aoutput24 [net24] nmatrix_col_out_18_ d_lut_sky130_fd_sc_hd__buf_2
Aoutput46 [net46] nmatrix_col_out_9_ d_lut_sky130_fd_sc_hd__buf_2
Aoutput57 [net57] nmatrix_col_out_n_19_ d_lut_sky130_fd_sc_hd__buf_2
Aoutput35 [net35] nmatrix_col_out_28_ d_lut_sky130_fd_sc_hd__buf_2
Aoutput79 [net79] nmatrix_row_out_n_0_ d_lut_sky130_fd_sc_hd__buf_2
Aoutput68 [net68] nmatrix_col_out_n_29_ d_lut_sky130_fd_sc_hd__buf_2
A_1480_ [_0595_ _0121_ _0142_] _0143_ d_lut_sky130_fd_sc_hd__or3_1
A_1816_ osr.next_sample_count_w\_1\_ net265 NULL ~net274 osr.sample_count_r\_1\_ NULL ddflop
A_1747_ [osr.next_result_w\_16\_ _0215_ _0260_ _0312_ _0261_] _0262_ d_lut_sky130_fd_sc_hd__o221a_1
A_1678_ [_0294_] _0205_ d_lut_sky130_fd_sc_hd__buf_2
A_0980_ [cnb.shift_register_r\_9\_ _0466_ _0376_ _0441_ cnb.data_register_r\_5\_] _0482_ d_lut_sky130_fd_sc_hd__a41oi_2
A_1601_ [_0660_ _0661_ _0668_] net24 d_lut_sky130_fd_sc_hd__a21oi_2
A_1532_ [_0646_ _0659_ _0669_ _0660_ _0647_] net140 d_lut_sky130_fd_sc_hd__o221a_2
A_1463_ [net258 _0132_] _0134_ d_lut_sky130_fd_sc_hd__or2_1
A_1394_ [_0089_ osr.result_r\_13\_ _0086_] _0091_ d_lut_sky130_fd_sc_hd__or3_1
A_0963_ [cnb.shift_register_r\_8\_] _0466_ d_lut_sky130_fd_sc_hd__inv_2
A_0894_ [_0400_ _0402_ _0403_ _0361_ _0381_] _0404_ d_lut_sky130_fd_sc_hd__a2111o_1
Aoutput203 [net203] pmatrix_row_out_n_5_ d_lut_sky130_fd_sc_hd__buf_2
Aoutput225 [net225] pmatrix_rowon_out_n_11_ d_lut_sky130_fd_sc_hd__buf_2
Aoutput214 [net214] pmatrix_rowoff_out_n_1_ d_lut_sky130_fd_sc_hd__buf_2
Aoutput247 [net247] result_out_3_ d_lut_sky130_fd_sc_hd__buf_2
A_1515_ [_0608_ _0610_ _0611_] _0155_ d_lut_sky130_fd_sc_hd__and3_1
Aoutput236 [net236] pmatrix_rowon_out_n_8_ d_lut_sky130_fd_sc_hd__buf_2
A_1446_ [_0613_ _0122_ _0125_] _0126_ d_lut_sky130_fd_sc_hd__or3_1
A_1377_ [cnb.result_out\_11\_ _0075_] _0076_ d_lut_sky130_fd_sc_hd__xnor2_1
A_1300_ [osr.result_r\_4\_ _0725_] _0726_ d_lut_sky130_fd_sc_hd__nor2_1
A_1231_ [_0691_] net71 d_lut_sky130_fd_sc_hd__buf_4
A_1162_ [_0627_ _0643_] _0644_ d_lut_sky130_fd_sc_hd__nand2_2
A_1093_ [_0462_ _0479_ _0491_] _0586_ d_lut_sky130_fd_sc_hd__or3_2
A_0946_ [_0429_ _0381_ _0430_ _0405_ _0361_] _0450_ d_lut_sky130_fd_sc_hd__o32a_1
A_0877_ [net2 _0387_ _0338_] _0388_ d_lut_sky130_fd_sc_hd__mux2_1
A_1429_ [osr.sample_count_r\_4\_ _0112_ _0110_] _0114_ d_lut_sky130_fd_sc_hd__and3_1
Afanout282 [net1] net282 d_lut_sky130_fd_sc_hd__buf_2
Afanout271 [net9] net271 d_lut_sky130_fd_sc_hd__buf_2
Afanout260 [net11] net260 d_lut_sky130_fd_sc_hd__clkbuf_4
A_0800_ [cnb.shift_register_r\_4\_ cnb.shift_register_r\_5\_] _0324_ d_lut_sky130_fd_sc_hd__or2_1
A_1780_ [cnb.result_out\_6\_ cnb.next_data_register_w\_6\_ _0184_] _0285_ d_lut_sky130_fd_sc_hd__mux2_1
A_1214_ [_0598_ _0549_] _0680_ d_lut_sky130_fd_sc_hd__nor2_8
A_1145_ [_0616_ _0630_ _0631_ _0624_] _0632_ d_lut_sky130_fd_sc_hd__a31o_1
A_1076_ [_0571_ _0394_ _0570_] _0573_ d_lut_sky130_fd_sc_hd__and3_1
A_0929_ [cnb.data_register_r\_2\_ _0435_] _0436_ d_lut_sky130_fd_sc_hd__xnor2_4
A_1832_ _0014_ net284 NULL ~net269 cnb.shift_register_r\_8\_ NULL ddflop
A_1763_ [net244 _0298_ _0200_] _0275_ d_lut_sky130_fd_sc_hd__and3_1
A_1694_ [net247 _0323_ _0217_] _0026_ d_lut_sky130_fd_sc_hd__a21o_1
A_1128_ [_0531_] _0617_ d_lut_sky130_fd_sc_hd__clkbuf_4
A_1059_ [_0518_ _0555_ cnb.data_register_r\_1\_] _0557_ d_lut_sky130_fd_sc_hd__o21a_1
Aoutput25 [net25] nmatrix_col_out_19_ d_lut_sky130_fd_sc_hd__buf_2
Aoutput14 [net14] nmatrix_bincap_out_n_2_ d_lut_sky130_fd_sc_hd__buf_2
Aoutput36 [net36] nmatrix_col_out_29_ d_lut_sky130_fd_sc_hd__buf_2
Aoutput47 [net47] nmatrix_col_out_n_0_ d_lut_sky130_fd_sc_hd__buf_2
Aoutput58 [net58] nmatrix_col_out_n_1_ d_lut_sky130_fd_sc_hd__buf_2
Aoutput69 [net69] nmatrix_col_out_n_2_ d_lut_sky130_fd_sc_hd__buf_2
A_1815_ osr.next_sample_count_w\_0\_ net265 ~net274 NULL osr.sample_count_r\_0\_ NULL ddflop
A_1746_ [_0229_ _0070_ _0231_] _0261_ d_lut_sky130_fd_sc_hd__a21oi_1
A_1677_ [_0200_ _0729_ _0203_] _0204_ d_lut_sky130_fd_sc_hd__or3_1
A_1600_ [_0635_ _0701_ _0667_] net23 d_lut_sky130_fd_sc_hd__o21a_2
A_1531_ [_0648_ _0659_ _0668_ _0651_] net138 d_lut_sky130_fd_sc_hd__o22a_1
A_1462_ [net97 _0133_] net82 d_lut_sky130_fd_sc_hd__nand2_2
A_1393_ [_0089_ _0086_ osr.result_r\_13\_] _0090_ d_lut_sky130_fd_sc_hd__o21ai_1
A_1729_ [_0306_ osr.next_result_w\_7\_ osr.next_result_w\_13\_ _0203_ _0322_] _0247_ d_lut_sky130_fd_sc_hd__o221a_1
A_0962_ [_0364_ _0429_ _0366_ cnb.shift_register_r\_12\_] _0465_ d_lut_sky130_fd_sc_hd__or4b_2
A_0893_ [cnb.shift_register_r\_16\_] _0403_ d_lut_sky130_fd_sc_hd__buf_2
Aoutput215 [net215] pmatrix_rowoff_out_n_2_ d_lut_sky130_fd_sc_hd__buf_2
Aoutput204 [net204] pmatrix_row_out_n_6_ d_lut_sky130_fd_sc_hd__buf_2
Aoutput226 [net226] pmatrix_rowon_out_n_12_ d_lut_sky130_fd_sc_hd__buf_2
Aoutput237 [net237] pmatrix_rowon_out_n_9_ d_lut_sky130_fd_sc_hd__buf_2
Aoutput248 [net248] result_out_4_ d_lut_sky130_fd_sc_hd__buf_2
A_1514_ [_0596_ _0602_ _0605_] net150 d_lut_sky130_fd_sc_hd__a21oi_1
A_1445_ [_0124_] _0125_ d_lut_sky130_fd_sc_hd__buf_2
A_1376_ [_0714_ _0073_ _0074_] _0075_ d_lut_sky130_fd_sc_hd__and3_1
A_1230_ [_0505_ _0585_ _0586_ _0594_] _0691_ d_lut_sky130_fd_sc_hd__o31a_1
A_1161_ [_0594_] _0643_ d_lut_sky130_fd_sc_hd__buf_6
A_1092_ [_0530_] _0585_ d_lut_sky130_fd_sc_hd__clkbuf_4
A_0945_ [_0432_ _0431_ _0381_] _0449_ d_lut_sky130_fd_sc_hd__a21o_1
A_0876_ [cnb.average_sum_r\_1\_ cnb.average_sum_r\_3\_ cnb.sampled_avg_control_r\_1\_] _0387_ d_lut_sky130_fd_sc_hd__mux2_1
A_1428_ [osr.sample_count_r\_4\_ _0110_ _0112_] _0113_ d_lut_sky130_fd_sc_hd__a21oi_1
A_1359_ [osr.result_r\_9\_ cnb.result_out\_9\_] _0059_ d_lut_sky130_fd_sc_hd__or2_1
Afanout283 [net284] net283 d_lut_sky130_fd_sc_hd__buf_2
Afanout272 [net273] net272 d_lut_sky130_fd_sc_hd__clkbuf_4
Afanout261 [net254] net261 d_lut_sky130_fd_sc_hd__buf_4
A_1213_ [_0585_ _0677_ _0678_ _0479_ _0658_] _0679_ d_lut_sky130_fd_sc_hd__a221o_2
A_1144_ [_0586_] _0631_ d_lut_sky130_fd_sc_hd__buf_4
A_1075_ [_0464_ _0570_ _0571_] _0572_ d_lut_sky130_fd_sc_hd__a21oi_1
A_0928_ [cnb.shift_register_r\_6\_ _0418_ _0427_ _0434_] _0435_ d_lut_sky130_fd_sc_hd__o31a_2
A_0859_ [cnb.shift_register_r\_7\_ cnb.shift_register_r\_6\_] _0373_ d_lut_sky130_fd_sc_hd__xnor2_1
A_1831_ _0013_ net282 NULL ~net268 cnb.shift_register_r\_7\_ NULL ddflop
A_1762_ [_0268_ _0272_ _0274_] _0037_ d_lut_sky130_fd_sc_hd__a21o_1
A_1693_ [_0312_ _0213_ _0216_] _0217_ d_lut_sky130_fd_sc_hd__o21a_1
A_1127_ [_0609_] _0616_ d_lut_sky130_fd_sc_hd__clkbuf_4
A_1058_ [_0438_ _0435_ _0447_] _0556_ d_lut_sky130_fd_sc_hd__o21ai_1
Aoutput15 [net15] nmatrix_col_out_0_ d_lut_sky130_fd_sc_hd__buf_2
Aoutput26 [net26] nmatrix_col_out_1_ d_lut_sky130_fd_sc_hd__buf_2
Aoutput48 [net48] nmatrix_col_out_n_10_ d_lut_sky130_fd_sc_hd__buf_2
Aoutput37 [net37] nmatrix_col_out_2_ d_lut_sky130_fd_sc_hd__buf_2
Aoutput59 [net59] nmatrix_col_out_n_20_ d_lut_sky130_fd_sc_hd__buf_2
A_1814_ _0005_ net265 NULL ~net274 osr.osr_mode_r\_2\_ NULL ddflop
A_1745_ [osr.next_result_w\_12\_ osr.next_result_w\_14\_ osr.osr_mode_r\_0\_] _0260_ d_lut_sky130_fd_sc_hd__mux2_1
A_1676_ [_0301_ _0315_] _0203_ d_lut_sky130_fd_sc_hd__nor2_1