* NGSPICE file created from adc_array_matrix_12bit.ext - technology: sky130A

.subckt adc_array_matrix_12bit_ext VDD VSS vcm sample sample_n row_n[0] row_n[1] row_n[2] row_n[3]
+ row_n[4] row_n[5] row_n[6] row_n[7] row_n[8] row_n[9] row_n[10] row_n[11] row_n[12] row_n[13] row_n[14]
+ row_n[15] rowon_n[0] rowon_n[1] rowon_n[2] rowon_n[3] rowon_n[4] rowon_n[5] rowon_n[6] rowon_n[7] rowon_n[8]
+ rowon_n[9] rowon_n[10] rowon_n[11] rowon_n[12] rowon_n[13] rowon_n[14] rowon_n[15] col_n[0] col_n[1] col_n[2]
+ col_n[3] col_n[4] col_n[5] col_n[6] col_n[7] col_n[8] col_n[9] col_n[10] col_n[11] col_n[12] col_n[13]
+ col_n[14] col_n[15] col_n[16] col_n[17] col_n[18] col_n[19] col_n[20] col_n[21] col_n[22] col_n[23] col_n[24]
+ col_n[25] col_n[26] col_n[27] col_n[28] col_n[29] col_n[30] col_n[31] en_bit_n[0] en_bit_n[1] en_bit_n[2] en_C0_n sw sw_n analog_in ctop rowoff_n[0] rowoff_n[1] rowoff_n[2]
+ rowoff_n[3] rowoff_n[4] rowoff_n[5] rowoff_n[6] rowoff_n[7] rowoff_n[8] rowoff_n[9] rowoff_n[10] rowoff_n[11]
+ rowoff_n[12] rowoff_n[13] rowoff_n[14] rowoff_n[15] col[0] col[1] col[2] col[3] col[4] col[5] col[6] col[7] col[8] col[9]
+ col[10] col[11] col[12] col[13] col[14] col[15] col[16] col[17] col[18] col[19] col[20] col[21] col[22]
+ col[23] col[24] col[25] col[26] col[27] col[28] col[29] col[30] col[31] 
X0 a_3970_15182# a_2475_15206# a_3878_15182# VSS sky130_fd_pr__nfet_01v8 ad=1.386e+11p pd=1.5e+06u as=2.604e+11p ps=2.92e+06u w=420000u l=150000u
X1 a_3878_9158# a_2275_9182# a_3970_9158# VDD sky130_fd_pr__pfet_01v8 ad=7.44e+11p pd=6.66e+06u as=2.64e+11p ps=2.26e+06u w=800000u l=150000u
X2 VDD rowon_n[5] a_18938_7150# VDD sky130_fd_pr__pfet_01v8 ad=1.71672e+14p pd=1.45178e+09u as=7.44e+11p ps=6.66e+06u w=800000u l=150000u
X3 a_30986_7150# row_n[5] a_31478_7512# VDD sky130_fd_pr__pfet_01v8 ad=7.44e+11p pd=6.66e+06u as=2.64e+11p ps=2.26e+06u w=800000u l=150000u
X4 vcm a_2275_18218# a_32082_18194# VSS sky130_fd_pr__nfet_01v8 ad=7.72086e+13p pd=8.6578e+08u as=1.386e+11p ps=1.5e+06u w=420000u l=150000u
X5 a_12002_2130# a_2475_2154# a_11910_2130# VSS sky130_fd_pr__nfet_01v8 ad=1.386e+11p pd=1.5e+06u as=2.604e+11p ps=2.92e+06u w=420000u l=150000u
X6 a_5374_4500# col_n[2] VDD VDD sky130_fd_pr__pfet_01v8 ad=2.64e+11p pd=2.26e+06u as=0p ps=0u w=800000u l=150000u
X7 a_14410_15544# col_n[11] VDD VDD sky130_fd_pr__pfet_01v8 ad=2.64e+11p pd=2.26e+06u as=0p ps=0u w=800000u l=150000u
X8 a_10906_12170# row_n[10] a_11398_12532# VDD sky130_fd_pr__pfet_01v8 ad=7.44e+11p pd=6.66e+06u as=2.64e+11p ps=2.26e+06u w=800000u l=150000u
X9 a_35398_9198# VDD VSS VSS sky130_fd_pr__nfet_01v8 ad=2.688e+11p pd=2.96e+06u as=4.3415e+14p ps=1.9839e+09u w=420000u l=150000u
X10 a_17422_7512# col_n[14] VDD VDD sky130_fd_pr__pfet_01v8 ad=2.64e+11p pd=2.26e+06u as=0p ps=0u w=800000u l=150000u
X11 a_18026_7150# a_2475_7174# vcm VDD sky130_fd_pr__pfet_01v8 ad=2.64e+11p pd=2.26e+06u as=1.47064e+14p ps=1.31646e+09u w=800000u l=150000u
X12 VSS row_n[4] a_9294_6186# VSS sky130_fd_pr__nfet_01v8 ad=0p pd=0u as=2.688e+11p ps=2.96e+06u w=420000u l=150000u
X13 a_4370_15544# col_n[1] VDD VDD sky130_fd_pr__pfet_01v8 ad=2.64e+11p pd=2.26e+06u as=0p ps=0u w=800000u l=150000u
X14 a_23046_11166# a_2475_11190# vcm VDD sky130_fd_pr__pfet_01v8 ad=2.64e+11p pd=2.26e+06u as=0p ps=0u w=800000u l=150000u
X15 a_22346_10202# rowon_n[8] a_21950_10162# VSS sky130_fd_pr__nfet_01v8 ad=2.688e+11p pd=2.96e+06u as=2.604e+11p ps=2.92e+06u w=420000u l=150000u
X16 a_14922_11166# row_n[9] a_15414_11528# VDD sky130_fd_pr__pfet_01v8 ad=7.44e+11p pd=6.66e+06u as=2.64e+11p ps=2.26e+06u w=800000u l=150000u
X17 a_15414_2492# col_n[12] VDD VDD sky130_fd_pr__pfet_01v8 ad=2.64e+11p pd=2.26e+06u as=0p ps=0u w=800000u l=150000u
X18 a_4882_11166# row_n[9] a_5374_11528# VDD sky130_fd_pr__pfet_01v8 ad=7.44e+11p pd=6.66e+06u as=2.64e+11p ps=2.26e+06u w=800000u l=150000u
X19 a_34394_2170# col_n[31] VSS VSS sky130_fd_pr__nfet_01v8 ad=2.688e+11p pd=2.96e+06u as=0p ps=0u w=420000u l=150000u
X20 a_27062_12170# a_2475_12194# vcm VDD sky130_fd_pr__pfet_01v8 ad=2.64e+11p pd=2.26e+06u as=0p ps=0u w=800000u l=150000u
X21 VSS row_n[6] a_26362_8194# VSS sky130_fd_pr__nfet_01v8 ad=0p pd=0u as=2.688e+11p ps=2.96e+06u w=420000u l=150000u
X22 a_1957_14202# VSS sample VDD sky130_fd_pr__pfet_01v8 ad=3.42e+11p pd=2.97e+06u as=6.156e+12p ps=5.346e+07u w=1.2e+06u l=150000u
X23 a_34090_3134# a_2475_3158# a_33998_3134# VSS sky130_fd_pr__nfet_01v8 ad=1.386e+11p pd=1.5e+06u as=2.604e+11p ps=2.92e+06u w=420000u l=150000u
X24 a_1957_4162# VDD sample VSS sky130_fd_pr__nfet_01v8 ad=1.71e+11p pd=1.77e+06u as=3.078e+12p ps=3.186e+07u w=600000u l=150000u
X25 a_26058_18194# a_2475_18218# vcm VDD sky130_fd_pr__pfet_01v8 ad=2.64e+11p pd=2.26e+06u as=0p ps=0u w=800000u l=150000u
X26 a_21342_2170# rowon_n[0] a_20946_2130# VSS sky130_fd_pr__nfet_01v8 ad=2.688e+11p pd=2.96e+06u as=2.604e+11p ps=2.92e+06u w=420000u l=150000u
X27 a_35002_9158# row_n[7] a_35494_9520# VDD sky130_fd_pr__pfet_01v8 ad=7.44e+11p pd=6.66e+06u as=2.64e+11p ps=2.26e+06u w=800000u l=150000u
X28 a_23350_18234# VDD a_22954_18194# VSS sky130_fd_pr__nfet_01v8 ad=2.688e+11p pd=2.96e+06u as=2.604e+11p ps=2.92e+06u w=420000u l=150000u
X29 VSS row_n[13] a_20338_15222# VSS sky130_fd_pr__nfet_01v8 ad=0p pd=0u as=2.688e+11p ps=2.96e+06u w=420000u l=150000u
X30 a_26970_14178# a_2275_14202# a_27062_14178# VDD sky130_fd_pr__pfet_01v8 ad=7.44e+11p pd=6.66e+06u as=2.64e+11p ps=2.26e+06u w=800000u l=150000u
X31 a_11302_8194# rowon_n[6] a_10906_8154# VSS sky130_fd_pr__nfet_01v8 ad=2.688e+11p pd=2.96e+06u as=2.604e+11p ps=2.92e+06u w=420000u l=150000u
X32 a_29982_4138# a_2275_4162# a_30074_4138# VDD sky130_fd_pr__pfet_01v8 ad=7.44e+11p pd=6.66e+06u as=2.64e+11p ps=2.26e+06u w=800000u l=150000u
X33 a_12306_4178# rowon_n[2] a_11910_4138# VSS sky130_fd_pr__nfet_01v8 ad=2.688e+11p pd=2.96e+06u as=2.604e+11p ps=2.92e+06u w=420000u l=150000u
X34 vcm a_2275_2154# a_13006_2130# VSS sky130_fd_pr__nfet_01v8 ad=0p pd=0u as=1.386e+11p ps=1.5e+06u w=420000u l=150000u
X35 VDD rowon_n[3] a_22954_5142# VDD sky130_fd_pr__pfet_01v8 ad=0p pd=0u as=7.44e+11p ps=6.66e+06u w=800000u l=150000u
X36 VSS row_n[12] a_24354_14218# VSS sky130_fd_pr__nfet_01v8 ad=0p pd=0u as=2.688e+11p ps=2.96e+06u w=420000u l=150000u
X37 a_21342_11206# col_n[18] VSS VSS sky130_fd_pr__nfet_01v8 ad=2.688e+11p pd=2.96e+06u as=0p ps=0u w=420000u l=150000u
X38 a_34394_10202# col_n[31] VSS VSS sky130_fd_pr__nfet_01v8 ad=2.688e+11p pd=2.96e+06u as=0p ps=0u w=420000u l=150000u
X39 a_24962_17190# a_2275_17214# a_25054_17190# VDD sky130_fd_pr__pfet_01v8 ad=7.44e+11p pd=6.66e+06u as=2.64e+11p ps=2.26e+06u w=800000u l=150000u
X40 a_18938_7150# a_2275_7174# a_19030_7150# VDD sky130_fd_pr__pfet_01v8 ad=0p pd=0u as=2.64e+11p ps=2.26e+06u w=800000u l=150000u
X41 a_4274_13214# rowon_n[11] a_3878_13174# VSS sky130_fd_pr__nfet_01v8 ad=2.688e+11p pd=2.96e+06u as=2.604e+11p ps=2.92e+06u w=420000u l=150000u
X42 a_14314_13214# rowon_n[11] a_13918_13174# VSS sky130_fd_pr__nfet_01v8 ad=2.688e+11p pd=2.96e+06u as=2.604e+11p ps=2.92e+06u w=420000u l=150000u
X43 VSS row_n[8] a_11302_10202# VSS sky130_fd_pr__nfet_01v8 ad=0p pd=0u as=2.688e+11p ps=2.96e+06u w=420000u l=150000u
X44 a_20034_7150# a_2475_7174# vcm VDD sky130_fd_pr__pfet_01v8 ad=2.64e+11p pd=2.26e+06u as=0p ps=0u w=800000u l=150000u
X45 a_21038_3134# a_2475_3158# vcm VDD sky130_fd_pr__pfet_01v8 ad=2.64e+11p pd=2.26e+06u as=0p ps=0u w=800000u l=150000u
X46 a_19430_18556# col_n[16] VDD VDD sky130_fd_pr__pfet_01v8 ad=2.64e+11p pd=2.26e+06u as=0p ps=0u w=800000u l=150000u
X47 a_19030_14178# a_2475_14202# a_18938_14178# VSS sky130_fd_pr__nfet_01v8 ad=1.386e+11p pd=1.5e+06u as=2.604e+11p ps=2.92e+06u w=420000u l=150000u
X48 a_11910_11166# a_2275_11190# a_12002_11166# VDD sky130_fd_pr__pfet_01v8 ad=7.44e+11p pd=6.66e+06u as=2.64e+11p ps=2.26e+06u w=800000u l=150000u
X49 VDD VSS VSS sky130_fd_pr__cap_var_lvt w=1.64e+07u l=1.6e+07u
X50 VDD rowon_n[14] a_22954_16186# VDD sky130_fd_pr__pfet_01v8 ad=0p pd=0u as=7.44e+11p ps=6.66e+06u w=800000u l=150000u
X51 a_28978_14178# row_n[12] a_29470_14540# VDD sky130_fd_pr__pfet_01v8 ad=7.44e+11p pd=6.66e+06u as=2.64e+11p ps=2.26e+06u w=800000u l=150000u
X52 a_20434_13536# col_n[17] VDD VDD sky130_fd_pr__pfet_01v8 ad=2.64e+11p pd=2.26e+06u as=0p ps=0u w=800000u l=150000u
X53 a_33486_12532# col_n[30] VDD VDD sky130_fd_pr__pfet_01v8 ad=2.64e+11p pd=2.26e+06u as=0p ps=0u w=800000u l=150000u
X54 vcm a_2275_10186# a_29070_10162# VSS sky130_fd_pr__nfet_01v8 ad=0p pd=0u as=1.386e+11p ps=1.5e+06u w=420000u l=150000u
X55 a_20338_6186# col_n[17] VSS VSS sky130_fd_pr__nfet_01v8 ad=2.688e+11p pd=2.96e+06u as=0p ps=0u w=420000u l=150000u
X56 a_15926_12170# a_2275_12194# a_16018_12170# VDD sky130_fd_pr__pfet_01v8 ad=7.44e+11p pd=6.66e+06u as=2.64e+11p ps=2.26e+06u w=800000u l=150000u
X57 a_3270_7190# rowon_n[5] a_2874_7150# VSS sky130_fd_pr__nfet_01v8 ad=2.688e+11p pd=2.96e+06u as=2.604e+11p ps=2.92e+06u w=420000u l=150000u
X58 VSS row_n[4] a_30378_6186# VSS sky130_fd_pr__nfet_01v8 ad=0p pd=0u as=2.688e+11p ps=2.96e+06u w=420000u l=150000u
X59 a_4274_3174# rowon_n[1] a_3878_3134# VSS sky130_fd_pr__nfet_01v8 ad=2.688e+11p pd=2.96e+06u as=2.604e+11p ps=2.92e+06u w=420000u l=150000u
X60 VDD rowon_n[2] a_11910_4138# VDD sky130_fd_pr__pfet_01v8 ad=0p pd=0u as=7.44e+11p ps=6.66e+06u w=800000u l=150000u
X61 a_5886_12170# a_2275_12194# a_5978_12170# VDD sky130_fd_pr__pfet_01v8 ad=7.44e+11p pd=6.66e+06u as=2.64e+11p ps=2.26e+06u w=800000u l=150000u
X62 VDD rowon_n[10] a_9902_12170# VDD sky130_fd_pr__pfet_01v8 ad=0p pd=0u as=7.44e+11p ps=6.66e+06u w=800000u l=150000u
X63 a_16322_6186# rowon_n[4] a_15926_6146# VSS sky130_fd_pr__nfet_01v8 ad=2.688e+11p pd=2.96e+06u as=2.604e+11p ps=2.92e+06u w=420000u l=150000u
X64 vcm a_2275_6170# a_24050_6146# VSS sky130_fd_pr__nfet_01v8 ad=0p pd=0u as=1.386e+11p ps=1.5e+06u w=420000u l=150000u
X65 a_35398_18234# VDD VSS VSS sky130_fd_pr__nfet_01v8 ad=2.688e+11p pd=2.96e+06u as=0p ps=0u w=420000u l=150000u
X66 VDD rowon_n[9] a_3878_11166# VDD sky130_fd_pr__pfet_01v8 ad=0p pd=0u as=7.44e+11p ps=6.66e+06u w=800000u l=150000u
X67 VDD rowon_n[9] a_13918_11166# VDD sky130_fd_pr__pfet_01v8 ad=0p pd=0u as=7.44e+11p ps=6.66e+06u w=800000u l=150000u
X68 VDD rowon_n[4] a_5886_6146# VDD sky130_fd_pr__pfet_01v8 ad=0p pd=0u as=7.44e+11p ps=6.66e+06u w=800000u l=150000u
X69 VSS VDD a_12306_18234# VSS sky130_fd_pr__nfet_01v8 ad=0p pd=0u as=2.688e+11p ps=2.96e+06u w=420000u l=150000u
X70 a_30074_17190# a_2475_17214# a_29982_17190# VSS sky130_fd_pr__nfet_01v8 ad=1.386e+11p pd=1.5e+06u as=2.604e+11p ps=2.92e+06u w=420000u l=150000u
X71 a_16018_7150# a_2475_7174# a_15926_7150# VSS sky130_fd_pr__nfet_01v8 ad=1.386e+11p pd=1.5e+06u as=2.604e+11p ps=2.92e+06u w=420000u l=150000u
X72 a_26058_1126# a_2475_1150# vcm VDD sky130_fd_pr__pfet_01v8 ad=2.64e+11p pd=2.26e+06u as=0p ps=0u w=800000u l=150000u
X73 a_25054_5142# a_2475_5166# vcm VDD sky130_fd_pr__pfet_01v8 ad=2.64e+11p pd=2.26e+06u as=0p ps=0u w=800000u l=150000u
X74 a_13310_14218# col_n[10] VSS VSS sky130_fd_pr__nfet_01v8 ad=2.688e+11p pd=2.96e+06u as=0p ps=0u w=420000u l=150000u
X75 VDD en_C0_n a_3878_1126# VDD sky130_fd_pr__pfet_01v8 ad=0p pd=0u as=7.44e+11p ps=6.66e+06u w=800000u l=150000u
X76 a_30986_17190# row_n[15] a_31478_17552# VDD sky130_fd_pr__pfet_01v8 ad=7.44e+11p pd=6.66e+06u as=2.64e+11p ps=2.26e+06u w=800000u l=150000u
X77 a_12002_16186# a_2475_16210# a_11910_16186# VSS sky130_fd_pr__nfet_01v8 ad=1.386e+11p pd=1.5e+06u as=2.604e+11p ps=2.92e+06u w=420000u l=150000u
X78 a_34090_16186# a_2475_16210# a_33998_16186# VSS sky130_fd_pr__nfet_01v8 ad=1.386e+11p pd=1.5e+06u as=2.604e+11p ps=2.92e+06u w=420000u l=150000u
X79 a_3270_14218# col_n[0] VSS VSS sky130_fd_pr__nfet_01v8 ad=2.688e+11p pd=2.96e+06u as=0p ps=0u w=420000u l=150000u
X80 vcm a_2275_13198# a_31078_13174# VSS sky130_fd_pr__nfet_01v8 ad=0p pd=0u as=1.386e+11p ps=1.5e+06u w=420000u l=150000u
X81 a_25358_4178# col_n[22] VSS VSS sky130_fd_pr__nfet_01v8 ad=2.688e+11p pd=2.96e+06u as=0p ps=0u w=420000u l=150000u
X82 a_35002_16186# row_n[14] a_35494_16548# VDD sky130_fd_pr__pfet_01v8 ad=7.44e+11p pd=6.66e+06u as=2.64e+11p ps=2.26e+06u w=800000u l=150000u
X83 a_10906_8154# row_n[6] a_11398_8516# VDD sky130_fd_pr__pfet_01v8 ad=7.44e+11p pd=6.66e+06u as=2.64e+11p ps=2.26e+06u w=800000u l=150000u
X84 VSS row_n[6] a_34394_8194# VSS sky130_fd_pr__nfet_01v8 ad=0p pd=0u as=2.688e+11p ps=2.96e+06u w=420000u l=150000u
X85 a_8290_5182# rowon_n[3] a_7894_5142# VSS sky130_fd_pr__nfet_01v8 ad=2.688e+11p pd=2.96e+06u as=2.604e+11p ps=2.92e+06u w=420000u l=150000u
X86 a_9294_1166# VSS a_8898_1126# VSS sky130_fd_pr__nfet_01v8 ad=2.688e+11p pd=2.96e+06u as=2.604e+11p ps=2.92e+06u w=420000u l=150000u
X87 VSS row_n[2] a_35398_4178# VSS sky130_fd_pr__nfet_01v8 ad=0p pd=0u as=2.688e+11p ps=2.96e+06u w=420000u l=150000u
X88 a_9994_9158# a_2475_9182# a_9902_9158# VSS sky130_fd_pr__nfet_01v8 ad=1.386e+11p pd=1.5e+06u as=2.604e+11p ps=2.92e+06u w=420000u l=150000u
X89 a_12402_16548# col_n[9] VDD VDD sky130_fd_pr__pfet_01v8 ad=2.64e+11p pd=2.26e+06u as=0p ps=0u w=800000u l=150000u
X90 a_19334_16226# rowon_n[14] a_18938_16186# VSS sky130_fd_pr__nfet_01v8 ad=2.688e+11p pd=2.96e+06u as=2.604e+11p ps=2.92e+06u w=420000u l=150000u
X91 a_20338_11206# rowon_n[9] a_19942_11166# VSS sky130_fd_pr__nfet_01v8 ad=2.688e+11p pd=2.96e+06u as=2.604e+11p ps=2.92e+06u w=420000u l=150000u
X92 vcm a_2275_8178# a_28066_8154# VSS sky130_fd_pr__nfet_01v8 ad=0p pd=0u as=1.386e+11p ps=1.5e+06u w=420000u l=150000u
X93 vcm a_2275_4162# a_29070_4138# VSS sky130_fd_pr__nfet_01v8 ad=0p pd=0u as=1.386e+11p ps=1.5e+06u w=420000u l=150000u
X94 VSS a_2161_13198# a_2275_13198# VSS sky130_fd_pr__nfet_01v8 ad=0p pd=0u as=1.71e+11p ps=1.77e+06u w=600000u l=150000u
X95 a_25358_7190# rowon_n[5] a_24962_7150# VSS sky130_fd_pr__nfet_01v8 ad=2.688e+11p pd=2.96e+06u as=2.604e+11p ps=2.92e+06u w=420000u l=150000u
X96 a_25054_13174# a_2475_13198# vcm VDD sky130_fd_pr__pfet_01v8 ad=2.64e+11p pd=2.26e+06u as=0p ps=0u w=800000u l=150000u
X97 a_13310_7190# col_n[10] VSS VSS sky130_fd_pr__nfet_01v8 ad=2.688e+11p pd=2.96e+06u as=0p ps=0u w=420000u l=150000u
X98 a_29070_7150# a_2475_7174# vcm VDD sky130_fd_pr__pfet_01v8 ad=2.64e+11p pd=2.26e+06u as=0p ps=0u w=800000u l=150000u
X99 a_14314_3174# col_n[11] VSS VSS sky130_fd_pr__nfet_01v8 ad=2.688e+11p pd=2.96e+06u as=0p ps=0u w=420000u l=150000u
X100 a_16018_12170# a_2475_12194# vcm VDD sky130_fd_pr__pfet_01v8 ad=0p pd=0u as=0p ps=0u w=800000u l=150000u
X101 a_33998_9158# a_2275_9182# a_34090_9158# VDD sky130_fd_pr__pfet_01v8 ad=7.44e+11p pd=6.66e+06u as=2.64e+11p ps=2.26e+06u w=800000u l=150000u
X102 VDD rowon_n[1] a_7894_3134# VDD sky130_fd_pr__pfet_01v8 ad=0p pd=0u as=7.44e+11p ps=6.66e+06u w=800000u l=150000u
X103 a_24962_4138# row_n[2] a_25454_4500# VDD sky130_fd_pr__pfet_01v8 ad=7.44e+11p pd=6.66e+06u as=2.64e+11p ps=2.26e+06u w=800000u l=150000u
X104 a_5978_12170# a_2475_12194# vcm VDD sky130_fd_pr__pfet_01v8 ad=0p pd=0u as=0p ps=0u w=800000u l=150000u
X105 a_2874_7150# row_n[5] a_3366_7512# VDD sky130_fd_pr__pfet_01v8 ad=7.44e+11p pd=6.66e+06u as=2.64e+11p ps=2.26e+06u w=800000u l=150000u
X106 vcm a_2275_7174# a_17022_7150# VSS sky130_fd_pr__nfet_01v8 ad=0p pd=0u as=1.386e+11p ps=1.5e+06u w=420000u l=150000u
X107 a_35494_4500# VDD VDD VDD sky130_fd_pr__pfet_01v8 ad=2.64e+11p pd=2.26e+06u as=0p ps=0u w=800000u l=150000u
X108 a_19942_11166# a_2275_11190# a_20034_11166# VDD sky130_fd_pr__pfet_01v8 ad=7.44e+11p pd=6.66e+06u as=2.64e+11p ps=2.26e+06u w=800000u l=150000u
X109 a_32994_10162# a_2275_10186# a_33086_10162# VDD sky130_fd_pr__pfet_01v8 ad=7.44e+11p pd=6.66e+06u as=2.64e+11p ps=2.26e+06u w=800000u l=150000u
X110 a_15926_6146# row_n[4] a_16418_6508# VDD sky130_fd_pr__pfet_01v8 ad=7.44e+11p pd=6.66e+06u as=2.64e+11p ps=2.26e+06u w=800000u l=150000u
X111 a_34394_18234# VDD a_33998_18194# VSS sky130_fd_pr__nfet_01v8 ad=2.688e+11p pd=2.96e+06u as=2.604e+11p ps=2.92e+06u w=420000u l=150000u
X112 a_27366_17230# col_n[24] VSS VSS sky130_fd_pr__nfet_01v8 ad=2.688e+11p pd=2.96e+06u as=0p ps=0u w=420000u l=150000u
X113 VSS row_n[13] a_31382_15222# VSS sky130_fd_pr__nfet_01v8 ad=0p pd=0u as=2.688e+11p ps=2.96e+06u w=420000u l=150000u
X114 a_13918_1126# VDD a_14410_1488# VDD sky130_fd_pr__pfet_01v8 ad=7.44e+11p pd=6.66e+06u as=2.64e+11p ps=2.26e+06u w=800000u l=150000u
X115 VSS row_n[12] a_35398_14218# VSS sky130_fd_pr__nfet_01v8 ad=0p pd=0u as=2.688e+11p ps=2.96e+06u w=420000u l=150000u
X116 a_32386_11206# col_n[29] VSS VSS sky130_fd_pr__nfet_01v8 ad=2.688e+11p pd=2.96e+06u as=0p ps=0u w=420000u l=150000u
X117 a_6282_2170# col_n[3] VSS VSS sky130_fd_pr__nfet_01v8 ad=2.688e+11p pd=2.96e+06u as=0p ps=0u w=420000u l=150000u
X118 a_22954_18194# a_2275_18218# a_23046_18194# VDD sky130_fd_pr__pfet_01v8 ad=7.44e+11p pd=6.66e+06u as=2.64e+11p ps=2.26e+06u w=800000u l=150000u
X119 a_12306_14218# rowon_n[12] a_11910_14178# VSS sky130_fd_pr__nfet_01v8 ad=2.688e+11p pd=2.96e+06u as=2.604e+11p ps=2.92e+06u w=420000u l=150000u
X120 a_18330_5182# col_n[15] VSS VSS sky130_fd_pr__nfet_01v8 ad=2.688e+11p pd=2.96e+06u as=0p ps=0u w=420000u l=150000u
X121 a_19334_1166# en_bit_n[2] VSS VSS sky130_fd_pr__nfet_01v8 ad=2.688e+11p pd=2.96e+06u as=0p ps=0u w=420000u l=150000u
X122 VDD VSS sky130_fd_pr__cap_mim_m3_1 l=1.72e+07u w=1.72e+07u
X123 VDD rowon_n[15] a_29982_17190# VDD sky130_fd_pr__pfet_01v8 ad=0p pd=0u as=7.44e+11p ps=6.66e+06u w=800000u l=150000u
X124 a_26058_15182# a_2475_15206# a_25966_15182# VSS sky130_fd_pr__nfet_01v8 ad=1.386e+11p pd=1.5e+06u as=2.604e+11p ps=2.92e+06u w=420000u l=150000u
X125 VSS en_bit_n[0] a_20338_1166# VSS sky130_fd_pr__nfet_01v8 ad=0p pd=0u as=2.688e+11p ps=2.96e+06u w=420000u l=150000u
X126 vcm a_2275_11190# a_27062_11166# VSS sky130_fd_pr__nfet_01v8 ad=0p pd=0u as=1.386e+11p ps=1.5e+06u w=420000u l=150000u
X127 a_7894_5142# row_n[3] a_8386_5504# VDD sky130_fd_pr__pfet_01v8 ad=7.44e+11p pd=6.66e+06u as=2.64e+11p ps=2.26e+06u w=800000u l=150000u
X128 a_30378_1166# VSS a_29982_1126# VSS sky130_fd_pr__nfet_01v8 ad=2.688e+11p pd=2.96e+06u as=2.604e+11p ps=2.92e+06u w=420000u l=150000u
X129 VDD rowon_n[14] a_33998_16186# VDD sky130_fd_pr__pfet_01v8 ad=0p pd=0u as=7.44e+11p ps=6.66e+06u w=800000u l=150000u
X130 a_26970_15182# row_n[13] a_27462_15544# VDD sky130_fd_pr__pfet_01v8 ad=7.44e+11p pd=6.66e+06u as=2.64e+11p ps=2.26e+06u w=800000u l=150000u
X131 a_31478_13536# col_n[28] VDD VDD sky130_fd_pr__pfet_01v8 ad=2.64e+11p pd=2.26e+06u as=0p ps=0u w=800000u l=150000u
X132 a_3878_13174# a_2275_13198# a_3970_13174# VDD sky130_fd_pr__pfet_01v8 ad=7.44e+11p pd=6.66e+06u as=2.64e+11p ps=2.26e+06u w=800000u l=150000u
X133 a_13918_13174# a_2275_13198# a_14010_13174# VDD sky130_fd_pr__pfet_01v8 ad=7.44e+11p pd=6.66e+06u as=2.64e+11p ps=2.26e+06u w=800000u l=150000u
X134 a_23046_5142# a_2475_5166# a_22954_5142# VSS sky130_fd_pr__nfet_01v8 ad=1.386e+11p pd=1.5e+06u as=2.604e+11p ps=2.92e+06u w=420000u l=150000u
X135 VDD rowon_n[6] a_30986_8154# VDD sky130_fd_pr__pfet_01v8 ad=0p pd=0u as=7.44e+11p ps=6.66e+06u w=800000u l=150000u
X136 a_17934_3134# row_n[1] a_18426_3496# VDD sky130_fd_pr__pfet_01v8 ad=7.44e+11p pd=6.66e+06u as=2.64e+11p ps=2.26e+06u w=800000u l=150000u
X137 a_29374_9198# col_n[26] VSS VSS sky130_fd_pr__nfet_01v8 ad=2.688e+11p pd=2.96e+06u as=0p ps=0u w=420000u l=150000u
X138 a_29982_12170# row_n[10] a_30474_12532# VDD sky130_fd_pr__pfet_01v8 ad=7.44e+11p pd=6.66e+06u as=2.64e+11p ps=2.26e+06u w=800000u l=150000u
X139 VSS row_n[1] a_24354_3174# VSS sky130_fd_pr__nfet_01v8 ad=0p pd=0u as=2.688e+11p ps=2.96e+06u w=420000u l=150000u
X140 a_10394_7512# col_n[7] VDD VDD sky130_fd_pr__pfet_01v8 ad=2.64e+11p pd=2.26e+06u as=0p ps=0u w=800000u l=150000u
X141 a_33390_7190# rowon_n[5] a_32994_7150# VSS sky130_fd_pr__nfet_01v8 ad=2.688e+11p pd=2.96e+06u as=2.604e+11p ps=2.92e+06u w=420000u l=150000u
X142 a_34394_3174# rowon_n[1] a_33998_3134# VSS sky130_fd_pr__nfet_01v8 ad=2.688e+11p pd=2.96e+06u as=0p ps=0u w=420000u l=150000u
X143 a_18330_11206# rowon_n[9] a_17934_11166# VSS sky130_fd_pr__nfet_01v8 ad=2.688e+11p pd=2.96e+06u as=2.604e+11p ps=2.92e+06u w=420000u l=150000u
X144 a_10998_7150# a_2475_7174# vcm VDD sky130_fd_pr__pfet_01v8 ad=2.64e+11p pd=2.26e+06u as=0p ps=0u w=800000u l=150000u
X145 VSS row_n[7] a_14314_9198# VSS sky130_fd_pr__nfet_01v8 ad=0p pd=0u as=2.688e+11p ps=2.96e+06u w=420000u l=150000u
X146 a_27062_7150# a_2475_7174# a_26970_7150# VSS sky130_fd_pr__nfet_01v8 ad=1.386e+11p pd=1.5e+06u as=2.604e+11p ps=2.92e+06u w=420000u l=150000u
X147 a_28066_3134# a_2475_3158# a_27974_3134# VSS sky130_fd_pr__nfet_01v8 ad=1.386e+11p pd=1.5e+06u as=2.604e+11p ps=2.92e+06u w=420000u l=150000u
X148 vcm a_2275_9182# a_32082_9158# VSS sky130_fd_pr__nfet_01v8 ad=0p pd=0u as=1.386e+11p ps=1.5e+06u w=420000u l=150000u
X149 a_18938_18194# VDD a_19430_18556# VDD sky130_fd_pr__pfet_01v8 ad=7.44e+11p pd=6.66e+06u as=0p ps=0u w=800000u l=150000u
X150 vcm a_2275_14202# a_8990_14178# VSS sky130_fd_pr__nfet_01v8 ad=0p pd=0u as=1.386e+11p ps=1.5e+06u w=420000u l=150000u
X151 vcm a_2275_14202# a_19030_14178# VSS sky130_fd_pr__nfet_01v8 ad=0p pd=0u as=0p ps=0u w=420000u l=150000u
X152 a_4974_9158# a_2475_9182# vcm VDD sky130_fd_pr__pfet_01v8 ad=2.64e+11p pd=2.26e+06u as=0p ps=0u w=800000u l=150000u
X153 a_28978_9158# row_n[7] a_29470_9520# VDD sky130_fd_pr__pfet_01v8 ad=7.44e+11p pd=6.66e+06u as=2.64e+11p ps=2.26e+06u w=800000u l=150000u
X154 a_8898_18194# VDD a_9390_18556# VDD sky130_fd_pr__pfet_01v8 ad=7.44e+11p pd=6.66e+06u as=2.64e+11p ps=2.26e+06u w=800000u l=150000u
X155 a_22954_8154# a_2275_8178# a_23046_8154# VDD sky130_fd_pr__pfet_01v8 ad=7.44e+11p pd=6.66e+06u as=2.64e+11p ps=2.26e+06u w=800000u l=150000u
X156 a_24450_1488# col_n[21] VDD VDD sky130_fd_pr__pfet_01v8 ad=2.64e+11p pd=2.26e+06u as=0p ps=0u w=800000u l=150000u
X157 a_19030_2130# a_2475_2154# vcm VDD sky130_fd_pr__pfet_01v8 ad=2.64e+11p pd=2.26e+06u as=0p ps=0u w=800000u l=150000u
X158 VSS row_n[0] a_13310_2170# VSS sky130_fd_pr__nfet_01v8 ad=0p pd=0u as=2.688e+11p ps=2.96e+06u w=420000u l=150000u
X159 a_23958_4138# a_2275_4162# a_24050_4138# VDD sky130_fd_pr__pfet_01v8 ad=7.44e+11p pd=6.66e+06u as=2.64e+11p ps=2.26e+06u w=800000u l=150000u
X160 a_33086_8154# a_2475_8178# vcm VDD sky130_fd_pr__pfet_01v8 ad=2.64e+11p pd=2.26e+06u as=0p ps=0u w=800000u l=150000u
X161 a_23046_14178# a_2475_14202# vcm VDD sky130_fd_pr__pfet_01v8 ad=2.64e+11p pd=2.26e+06u as=0p ps=0u w=800000u l=150000u
X162 VSS VDD a_29374_1166# VSS sky130_fd_pr__nfet_01v8 ad=0p pd=0u as=2.688e+11p ps=2.96e+06u w=420000u l=150000u
X163 a_14410_9520# col_n[11] VDD VDD sky130_fd_pr__pfet_01v8 ad=2.64e+11p pd=2.26e+06u as=0p ps=0u w=800000u l=150000u
X164 a_15414_5504# col_n[12] VDD VDD sky130_fd_pr__pfet_01v8 ad=2.64e+11p pd=2.26e+06u as=0p ps=0u w=800000u l=150000u
X165 VSS row_n[13] a_29374_15222# VSS sky130_fd_pr__nfet_01v8 ad=0p pd=0u as=2.688e+11p ps=2.96e+06u w=420000u l=150000u
X166 a_33390_13214# rowon_n[11] a_32994_13174# VSS sky130_fd_pr__nfet_01v8 ad=2.688e+11p pd=2.96e+06u as=2.604e+11p ps=2.92e+06u w=420000u l=150000u
X167 a_26362_12210# col_n[23] VSS VSS sky130_fd_pr__nfet_01v8 ad=2.688e+11p pd=2.96e+06u as=0p ps=0u w=420000u l=150000u
X168 VSS row_n[8] a_30378_10202# VSS sky130_fd_pr__nfet_01v8 ad=0p pd=0u as=2.688e+11p ps=2.96e+06u w=420000u l=150000u
X169 a_16018_5142# a_2475_5166# vcm VDD sky130_fd_pr__pfet_01v8 ad=2.64e+11p pd=2.26e+06u as=0p ps=0u w=800000u l=150000u
X170 VSS row_n[2] a_7286_4178# VSS sky130_fd_pr__nfet_01v8 ad=0p pd=0u as=2.688e+11p ps=2.96e+06u w=420000u l=150000u
X171 a_30986_11166# a_2275_11190# a_31078_11166# VDD sky130_fd_pr__pfet_01v8 ad=7.44e+11p pd=6.66e+06u as=2.64e+11p ps=2.26e+06u w=800000u l=150000u
X172 a_11910_7150# a_2275_7174# a_12002_7150# VDD sky130_fd_pr__pfet_01v8 ad=7.44e+11p pd=6.66e+06u as=2.64e+11p ps=2.26e+06u w=800000u l=150000u
X173 VDD rowon_n[15] a_27974_17190# VDD sky130_fd_pr__pfet_01v8 ad=0p pd=0u as=7.44e+11p ps=6.66e+06u w=800000u l=150000u
X174 a_25454_14540# col_n[22] VDD VDD sky130_fd_pr__pfet_01v8 ad=2.64e+11p pd=2.26e+06u as=0p ps=0u w=800000u l=150000u
X175 a_35002_12170# a_2275_12194# a_35094_12170# VDD sky130_fd_pr__pfet_01v8 ad=7.44e+11p pd=6.66e+06u as=2.64e+11p ps=2.26e+06u w=800000u l=150000u
X176 a_25054_10162# a_2475_10186# a_24962_10162# VSS sky130_fd_pr__nfet_01v8 ad=1.386e+11p pd=1.5e+06u as=2.604e+11p ps=2.92e+06u w=420000u l=150000u
X177 a_27974_6146# a_2275_6170# a_28066_6146# VDD sky130_fd_pr__pfet_01v8 ad=7.44e+11p pd=6.66e+06u as=2.64e+11p ps=2.26e+06u w=800000u l=150000u
X178 a_32082_1126# a_2475_1150# a_31990_1126# VSS sky130_fd_pr__nfet_01v8 ad=1.386e+11p pd=1.5e+06u as=2.604e+11p ps=2.92e+06u w=420000u l=150000u
X179 a_5886_9158# a_2275_9182# a_5978_9158# VDD sky130_fd_pr__pfet_01v8 ad=7.44e+11p pd=6.66e+06u as=2.64e+11p ps=2.26e+06u w=800000u l=150000u
X180 a_33998_18194# a_2275_18218# a_34090_18194# VDD sky130_fd_pr__pfet_01v8 ad=7.44e+11p pd=6.66e+06u as=2.64e+11p ps=2.26e+06u w=800000u l=150000u
X181 a_29470_13536# col_n[26] VDD VDD sky130_fd_pr__pfet_01v8 ad=2.64e+11p pd=2.26e+06u as=0p ps=0u w=800000u l=150000u
X182 VDD rowon_n[9] a_32994_11166# VDD sky130_fd_pr__pfet_01v8 ad=0p pd=0u as=7.44e+11p ps=6.66e+06u w=800000u l=150000u
X183 a_25966_10162# row_n[8] a_26458_10524# VDD sky130_fd_pr__pfet_01v8 ad=7.44e+11p pd=6.66e+06u as=2.64e+11p ps=2.26e+06u w=800000u l=150000u
X184 a_32994_7150# row_n[5] a_33486_7512# VDD sky130_fd_pr__pfet_01v8 ad=7.44e+11p pd=6.66e+06u as=2.64e+11p ps=2.26e+06u w=800000u l=150000u
X185 a_7382_4500# col_n[4] VDD VDD sky130_fd_pr__pfet_01v8 ad=2.64e+11p pd=2.26e+06u as=0p ps=0u w=800000u l=150000u
X186 a_14010_2130# a_2475_2154# a_13918_2130# VSS sky130_fd_pr__nfet_01v8 ad=1.386e+11p pd=1.5e+06u as=2.604e+11p ps=2.92e+06u w=420000u l=150000u
X187 a_30986_2130# row_n[0] a_31478_2492# VDD sky130_fd_pr__pfet_01v8 ad=7.44e+11p pd=6.66e+06u as=2.64e+11p ps=2.26e+06u w=800000u l=150000u
X188 VDD rowon_n[0] a_18938_2130# VDD sky130_fd_pr__pfet_01v8 ad=0p pd=0u as=7.44e+11p ps=6.66e+06u w=800000u l=150000u
X189 a_11910_14178# a_2275_14202# a_12002_14178# VDD sky130_fd_pr__pfet_01v8 ad=7.44e+11p pd=6.66e+06u as=2.64e+11p ps=2.26e+06u w=800000u l=150000u
X190 VDD rowon_n[10] a_8898_12170# VDD sky130_fd_pr__pfet_01v8 ad=0p pd=0u as=7.44e+11p ps=6.66e+06u w=800000u l=150000u
X191 a_16930_5142# a_2275_5166# a_17022_5142# VDD sky130_fd_pr__pfet_01v8 ad=7.44e+11p pd=6.66e+06u as=2.64e+11p ps=2.26e+06u w=800000u l=150000u
X192 a_17422_2492# col_n[14] VDD VDD sky130_fd_pr__pfet_01v8 ad=2.64e+11p pd=2.26e+06u as=0p ps=0u w=800000u l=150000u
X193 vcm a_2275_15206# a_23046_15182# VSS sky130_fd_pr__nfet_01v8 ad=0p pd=0u as=1.386e+11p ps=1.5e+06u w=420000u l=150000u
X194 VSS row_n[6] a_28370_8194# VSS sky130_fd_pr__nfet_01v8 ad=0p pd=0u as=2.688e+11p ps=2.96e+06u w=420000u l=150000u
X195 a_17022_17190# a_2475_17214# a_16930_17190# VSS sky130_fd_pr__nfet_01v8 ad=1.386e+11p pd=1.5e+06u as=2.604e+11p ps=2.92e+06u w=420000u l=150000u
X196 a_8290_15222# col_n[5] VSS VSS sky130_fd_pr__nfet_01v8 ad=2.688e+11p pd=2.96e+06u as=0p ps=0u w=420000u l=150000u
X197 a_18330_15222# col_n[15] VSS VSS sky130_fd_pr__nfet_01v8 ad=2.688e+11p pd=2.96e+06u as=0p ps=0u w=420000u l=150000u
X198 a_6982_17190# a_2475_17214# a_6890_17190# VSS sky130_fd_pr__nfet_01v8 ad=1.386e+11p pd=1.5e+06u as=2.604e+11p ps=2.92e+06u w=420000u l=150000u
X199 a_9902_17190# a_2275_17214# a_9994_17190# VDD sky130_fd_pr__pfet_01v8 ad=7.44e+11p pd=6.66e+06u as=2.64e+11p ps=2.26e+06u w=800000u l=150000u
X200 a_1957_8178# VSS sample VDD sky130_fd_pr__pfet_01v8 ad=3.42e+11p pd=2.97e+06u as=0p ps=0u w=1.2e+06u l=150000u
X201 a_23350_2170# rowon_n[0] a_22954_2130# VSS sky130_fd_pr__nfet_01v8 ad=2.688e+11p pd=2.96e+06u as=2.604e+11p ps=2.92e+06u w=420000u l=150000u
X202 vcm a_2275_10186# a_14010_10162# VSS sky130_fd_pr__nfet_01v8 ad=0p pd=0u as=1.386e+11p ps=1.5e+06u w=420000u l=150000u
X203 a_2966_9158# a_2475_9182# a_2874_9158# VSS sky130_fd_pr__nfet_01v8 ad=1.386e+11p pd=1.5e+06u as=2.604e+11p ps=2.92e+06u w=420000u l=150000u
X204 a_2161_6170# sample VSS VSS sky130_fd_pr__nfet_01v8 ad=1.71e+11p pd=1.77e+06u as=0p ps=0u w=600000u l=150000u
X205 a_7382_17552# col_n[4] VDD VDD sky130_fd_pr__pfet_01v8 ad=2.64e+11p pd=2.26e+06u as=0p ps=0u w=800000u l=150000u
X206 a_17422_17552# col_n[14] VDD VDD sky130_fd_pr__pfet_01v8 ad=2.64e+11p pd=2.26e+06u as=0p ps=0u w=800000u l=150000u
X207 a_3878_14178# row_n[12] a_4370_14540# VDD sky130_fd_pr__pfet_01v8 ad=7.44e+11p pd=6.66e+06u as=2.64e+11p ps=2.26e+06u w=800000u l=150000u
X208 a_13918_14178# row_n[12] a_14410_14540# VDD sky130_fd_pr__pfet_01v8 ad=7.44e+11p pd=6.66e+06u as=2.64e+11p ps=2.26e+06u w=800000u l=150000u
X209 a_25358_12210# rowon_n[10] a_24962_12170# VSS sky130_fd_pr__nfet_01v8 ad=2.688e+11p pd=2.96e+06u as=2.604e+11p ps=2.92e+06u w=420000u l=150000u
X210 vcm a_2275_10186# a_3970_10162# VSS sky130_fd_pr__nfet_01v8 ad=0p pd=0u as=1.386e+11p ps=1.5e+06u w=420000u l=150000u
X211 a_13310_8194# rowon_n[6] a_12914_8154# VSS sky130_fd_pr__nfet_01v8 ad=2.688e+11p pd=2.96e+06u as=2.604e+11p ps=2.92e+06u w=420000u l=150000u
X212 vcm a_2275_8178# a_21038_8154# VSS sky130_fd_pr__nfet_01v8 ad=0p pd=0u as=1.386e+11p ps=1.5e+06u w=420000u l=150000u
X213 vcm a_2275_4162# a_22042_4138# VSS sky130_fd_pr__nfet_01v8 ad=0p pd=0u as=1.386e+11p ps=1.5e+06u w=420000u l=150000u
X214 a_14314_4178# rowon_n[2] a_13918_4138# VSS sky130_fd_pr__nfet_01v8 ad=2.688e+11p pd=2.96e+06u as=2.604e+11p ps=2.92e+06u w=420000u l=150000u
X215 a_17934_13174# row_n[11] a_18426_13536# VDD sky130_fd_pr__pfet_01v8 ad=7.44e+11p pd=6.66e+06u as=2.64e+11p ps=2.26e+06u w=800000u l=150000u
X216 a_29374_11206# rowon_n[9] a_28978_11166# VSS sky130_fd_pr__nfet_01v8 ad=2.688e+11p pd=2.96e+06u as=2.604e+11p ps=2.92e+06u w=420000u l=150000u
X217 a_31078_8154# a_2475_8178# a_30986_8154# VSS sky130_fd_pr__nfet_01v8 ad=1.386e+11p pd=1.5e+06u as=2.604e+11p ps=2.92e+06u w=420000u l=150000u
X218 vcm a_2275_2154# a_15014_2130# VSS sky130_fd_pr__nfet_01v8 ad=0p pd=0u as=1.386e+11p ps=1.5e+06u w=420000u l=150000u