* XSpice netlist created from SPICE and liberty sources by spi2xspice.py
* NGSPICE file created from adc_core_digital.ext - technology: sky130A
.subckt adc_core_digital a_VPWR a_VGND a_clk_dig_in a_comparator_in a_config_1_in_0_ a_config_1_in_1_ a_config_1_in_2_ a_config_1_in_3_ a_config_1_in_4_ a_config_1_in_5_ a_config_1_in_6_ a_config_1_in_7_ a_config_1_in_8_ a_config_1_in_9_ a_config_1_in_10_ a_config_1_in_11_ a_config_1_in_12_ a_config_1_in_13_ a_config_1_in_14_ a_config_1_in_15_ a_config_2_in_0_ a_config_2_in_1_ a_config_2_in_2_ a_config_2_in_3_ a_config_2_in_4_ a_config_2_in_5_ a_config_2_in_6_ a_config_2_in_7_ a_config_2_in_8_ a_config_2_in_9_ a_config_2_in_10_ a_config_2_in_11_ a_config_2_in_12_ a_config_2_in_13_ a_config_2_in_14_ a_config_2_in_15_ a_conv_finished_out a_enable_loop_out a_nmatrix_bincap_out_n_0_ a_nmatrix_bincap_out_n_1_ a_nmatrix_bincap_out_n_2_ a_nmatrix_c0_out_n a_nmatrix_col_out_n_0_ a_nmatrix_col_out_n_1_ a_nmatrix_col_out_n_2_ a_nmatrix_col_out_n_3_ a_nmatrix_col_out_n_4_ a_nmatrix_col_out_n_5_ a_nmatrix_col_out_n_6_ a_nmatrix_col_out_n_7_ a_nmatrix_col_out_n_8_ a_nmatrix_col_out_n_9_ a_nmatrix_col_out_n_10_ a_nmatrix_col_out_n_11_ a_nmatrix_col_out_n_12_ a_nmatrix_col_out_n_13_ a_nmatrix_col_out_n_14_ a_nmatrix_col_out_n_15_ a_nmatrix_col_out_n_16_ a_nmatrix_col_out_n_17_ a_nmatrix_col_out_n_18_ a_nmatrix_col_out_n_19_  a_nmatrix_col_out_n_20_ a_nmatrix_col_out_n_21_ a_nmatrix_col_out_n_22_ a_nmatrix_col_out_n_23_ a_nmatrix_col_out_n_24_ a_nmatrix_col_out_n_25_ a_nmatrix_col_out_n_26_ a_nmatrix_col_out_n_27_ a_nmatrix_col_out_n_28_ a_nmatrix_col_out_n_29_  a_nmatrix_col_out_n_30_ a_nmatrix_col_out_n_31_ a_nmatrix_row_out_n_0_ a_nmatrix_row_out_n_1_ a_nmatrix_row_out_n_2_ a_nmatrix_row_out_n_3_ a_nmatrix_row_out_n_4_ a_nmatrix_row_out_n_5_ a_nmatrix_row_out_n_6_ a_nmatrix_row_out_n_7_ a_nmatrix_row_out_n_8_ a_nmatrix_row_out_n_9_  a_nmatrix_row_out_n_10_ a_nmatrix_row_out_n_11_ a_nmatrix_row_out_n_12_ a_nmatrix_row_out_n_13_ a_nmatrix_row_out_n_14_ a_nmatrix_row_out_n_15_ a_nmatrix_rowon_out_n_0_ a_nmatrix_rowon_out_n_1_ a_nmatrix_rowon_out_n_2_ a_nmatrix_rowon_out_n_3_ a_nmatrix_rowon_out_n_4_ a_nmatrix_rowon_out_n_5_ a_nmatrix_rowon_out_n_6_ a_nmatrix_rowon_out_n_7_ a_nmatrix_rowon_out_n_8_ a_nmatrix_rowon_out_n_9_ a_nmatrix_rowon_out_n_10_ a_nmatrix_rowon_out_n_11_ a_nmatrix_rowon_out_n_12_ a_nmatrix_rowon_out_n_13_ a_nmatrix_rowon_out_n_14_ a_nmatrix_rowon_out_n_15_ a_pmatrix_bincap_out_n_0_ a_pmatrix_bincap_out_n_1_ a_pmatrix_bincap_out_n_2_ a_pmatrix_c0_out_n a_pmatrix_col_out_n_0_ a_pmatrix_col_out_n_1_ a_pmatrix_col_out_n_2_ a_pmatrix_col_out_n_3_ a_pmatrix_col_out_n_4_ a_pmatrix_col_out_n_5_ a_pmatrix_col_out_n_6_ a_pmatrix_col_out_n_7_ a_pmatrix_col_out_n_8_ a_pmatrix_col_out_n_9_ a_pmatrix_col_out_n_10_ a_pmatrix_col_out_n_11_ a_pmatrix_col_out_n_12_ a_pmatrix_col_out_n_13_ a_pmatrix_col_out_n_14_ a_pmatrix_col_out_n_15_ a_pmatrix_col_out_n_16_ a_pmatrix_col_out_n_17_ a_pmatrix_col_out_n_18_ a_pmatrix_col_out_n_19_  a_pmatrix_col_out_n_20_ a_pmatrix_col_out_n_21_ a_pmatrix_col_out_n_22_ a_pmatrix_col_out_n_23_ a_pmatrix_col_out_n_24_ a_pmatrix_col_out_n_25_ a_pmatrix_col_out_n_26_ a_pmatrix_col_out_n_27_ a_pmatrix_col_out_n_28_ a_pmatrix_col_out_n_29_  a_pmatrix_col_out_n_30_ a_pmatrix_col_out_n_31_ a_pmatrix_row_out_n_0_ a_pmatrix_row_out_n_1_ a_pmatrix_row_out_n_2_ a_pmatrix_row_out_n_3_ a_pmatrix_row_out_n_4_ a_pmatrix_row_out_n_5_ a_pmatrix_row_out_n_6_ a_pmatrix_row_out_n_7_ a_pmatrix_row_out_n_8_ a_pmatrix_row_out_n_9_ a_pmatrix_row_out_n_10_ a_pmatrix_row_out_n_11_ a_pmatrix_row_out_n_12_ a_pmatrix_row_out_n_13_ a_pmatrix_row_out_n_14_ a_pmatrix_row_out_n_15_ a_pmatrix_rowon_out_n_0_ a_pmatrix_rowon_out_n_1_ a_pmatrix_rowon_out_n_2_ a_pmatrix_rowon_out_n_3_ a_pmatrix_rowon_out_n_4_ a_pmatrix_rowon_out_n_5_ a_pmatrix_rowon_out_n_6_ a_pmatrix_rowon_out_n_7_ a_pmatrix_rowon_out_n_8_ a_pmatrix_rowon_out_n_9_ a_pmatrix_rowon_out_n_10_ a_pmatrix_rowon_out_n_11_ a_pmatrix_rowon_out_n_12_ a_pmatrix_rowon_out_n_13_ a_pmatrix_rowon_out_n_14_ a_pmatrix_rowon_out_n_15_ a_result_out_0_ a_result_out_1_ a_result_out_2_ a_result_out_3_ a_result_out_4_ a_result_out_5_ a_result_out_6_ a_result_out_7_ a_result_out_8_ a_result_out_9_ a_result_out_10_ a_result_out_11_ a_result_out_12_ a_result_out_13_ a_result_out_14_ a_result_out_15_ a_rst_n a_sample_matrix_out a_sample_matrix_out_n a_sample_switch_out a_sample_switch_out_n a_nmatrix_rowoff_out_n_0_ a_nmatrix_rowoff_out_n_1_ a_nmatrix_rowoff_out_n_2_ a_nmatrix_rowoff_out_n_3_ a_nmatrix_rowoff_out_n_4_ a_nmatrix_rowoff_out_n_5_ a_nmatrix_rowoff_out_n_6_ a_nmatrix_rowoff_out_n_7_ a_nmatrix_rowoff_out_n_8_ a_nmatrix_rowoff_out_n_9_ a_nmatrix_rowoff_out_n_10_ a_nmatrix_rowoff_out_n_11_ a_nmatrix_rowoff_out_n_12_ a_nmatrix_rowoff_out_n_13_ a_nmatrix_rowoff_out_n_14_ a_nmatrix_rowoff_out_n_15_ a_nmatrix_col_out_0_ a_nmatrix_col_out_1_ a_nmatrix_col_out_2_ a_nmatrix_col_out_3_ a_nmatrix_col_out_4_ a_nmatrix_col_out_5_ a_nmatrix_col_out_6_ a_nmatrix_col_out_7_ a_nmatrix_col_out_8_ a_nmatrix_col_out_9_ a_nmatrix_col_out_10_ a_nmatrix_col_out_11_ a_nmatrix_col_out_12_ a_nmatrix_col_out_13_ a_nmatrix_col_out_14_ a_nmatrix_col_out_15_ a_nmatrix_col_out_16_ a_nmatrix_col_out_17_ a_nmatrix_col_out_18_ a_nmatrix_col_out_19_  a_nmatrix_col_out_20_ a_nmatrix_col_out_21_ a_nmatrix_col_out_22_ a_nmatrix_col_out_23_ a_nmatrix_col_out_24_ a_nmatrix_col_out_25_ a_nmatrix_col_out_26_ a_nmatrix_col_out_27_ a_nmatrix_col_out_28_ a_nmatrix_col_out_29_  a_nmatrix_col_out_30_ a_nmatrix_col_out_31_ a_pmatrix_rowoff_out_n_0_ a_pmatrix_rowoff_out_n_1_ a_pmatrix_rowoff_out_n_2_ a_pmatrix_rowoff_out_n_3_ a_pmatrix_rowoff_out_n_4_ a_pmatrix_rowoff_out_n_5_ a_pmatrix_rowoff_out_n_6_ a_pmatrix_rowoff_out_n_7_ a_pmatrix_rowoff_out_n_8_ a_pmatrix_rowoff_out_n_9_ a_pmatrix_rowoff_out_n_10_ a_pmatrix_rowoff_out_n_11_ a_pmatrix_rowoff_out_n_12_ a_pmatrix_rowoff_out_n_13_ a_pmatrix_rowoff_out_n_14_ a_pmatrix_rowoff_out_n_15_ a_pmatrix_col_out_0_ a_pmatrix_col_out_1_ a_pmatrix_col_out_2_ a_pmatrix_col_out_3_ a_pmatrix_col_out_4_ a_pmatrix_col_out_5_ a_pmatrix_col_out_6_ a_pmatrix_col_out_7_ a_pmatrix_col_out_8_ a_pmatrix_col_out_9_ a_pmatrix_col_out_10_ a_pmatrix_col_out_11_ a_pmatrix_col_out_12_ a_pmatrix_col_out_13_ a_pmatrix_col_out_14_ a_pmatrix_col_out_15_ a_pmatrix_col_out_16_ a_pmatrix_col_out_17_ a_pmatrix_col_out_18_ a_pmatrix_col_out_19_  a_pmatrix_col_out_20_ a_pmatrix_col_out_21_ a_pmatrix_col_out_22_ a_pmatrix_col_out_23_ a_pmatrix_col_out_24_ a_pmatrix_col_out_25_ a_pmatrix_col_out_26_ a_pmatrix_col_out_27_ a_pmatrix_col_out_28_ a_pmatrix_col_out_29_  a_pmatrix_col_out_30_ a_pmatrix_col_out_31_ a_conv_finished_osr_out 
A_2106_ [_0737_ _0324_] _0362_ d_lut_sky130_fd_sc_hd__or2_2
A_2037_ [_0700_] _0297_ d_lut_sky130_fd_sc_hd__buf_2
A_1270_ [_0832_ _0833_] _0834_ d_lut_sky130_fd_sc_hd__nor2_2
A_1606_ [_0887_ _1066_] _1067_ d_lut_sky130_fd_sc_hd__nand2_1
A_1537_ [_0858_ _0952_] _1016_ d_lut_sky130_fd_sc_hd__nand2_1
A_1468_ [_0971_] _0972_ d_lut_sky130_fd_sc_hd__clkbuf_2
A_1399_ [_0915_ _0886_] _0927_ d_lut_sky130_fd_sc_hd__nor2_1
A_2440_ [cnb.result_out\_3\_ _0665_ _0658_] _0666_ d_lut_sky130_fd_sc_hd__mux2_1
A_2371_ [_0577_ _0205_ _0208_ _0608_ _0718_] _0609_ d_lut_sky130_fd_sc_hd__a221o_1
A_1322_ [_0784_ _0875_] _0876_ d_lut_sky130_fd_sc_hd__nor2_1
A_1253_ [_0772_ _0814_] _0819_ d_lut_sky130_fd_sc_hd__and2_1
A_1184_ [cnb.data_register_r\_10\_ cnb.data_register_r\_11\_] _0759_ d_lut_sky130_fd_sc_hd__nand2_2
Aoutput253 [net253] result_out_3_ d_lut_sky130_fd_sc_hd__buf_2
Aoutput220 [net220] pmatrix_rowoff_out_n_2_ d_lut_sky130_fd_sc_hd__buf_2
Aoutput231 [net231] pmatrix_rowon_out_n_12_ d_lut_sky130_fd_sc_hd__buf_2
Aoutput242 [net242] pmatrix_rowon_out_n_8_ d_lut_sky130_fd_sc_hd__buf_2
A_2569_ cnb.next_average_sum_w\_1\_ clknet_2_2__leaf_clk_dig_in NULL ~net282 cnb.average_sum_r\_1\_ NULL ddflop
A_1940_ [osr.sample_count_r\_0\_ osr.sample_count_r\_1\_] _0255_ d_lut_sky130_fd_sc_hd__nand2_1
A_1871_ [osr.result_r\_4\_ _0165_ cnb.result_out\_4\_] _0201_ d_lut_sky130_fd_sc_hd__a21oi_1
A_2423_ [cnb.shift_register_r\_2\_ _0737_] _0652_ d_lut_sky130_fd_sc_hd__nand2_2
A_2354_ [net254 _0594_ _0719_] _0595_ d_lut_sky130_fd_sc_hd__mux2_1
A_1305_ [net193] net161 d_lut_sky130_fd_sc_hd__clkinv_2
A_2285_ [_0482_ _0500_ _0533_] _0534_ d_lut_sky130_fd_sc_hd__and3_1
A_1236_ [net175] net143 d_lut_sky130_fd_sc_hd__clkinv_2
A_1167_ [_0740_ _0748_] cnb.next_average_sum_w\_4\_ d_lut_sky130_fd_sc_hd__nor2_1
A_2070_ [cnb.shift_register_r\_2\_ _0326_ _0738_] _0327_ d_lut_sky130_fd_sc_hd__o21a_1
A_1923_ [_0222_ _0244_] osr.next_result_w\_15\_ d_lut_sky130_fd_sc_hd__nor2_1
A_1854_ [_0165_ _0185_ _0186_] _0187_ d_lut_sky130_fd_sc_hd__a21o_1
A_1785_ [_0968_ net111 _0802_] _0135_ d_lut_sky130_fd_sc_hd__mux2_1
A_2406_ [_0703_ osr.next_result_w\_15\_ _0637_ _0583_] _0638_ d_lut_sky130_fd_sc_hd__a211o_1
A_2337_ [_0575_ _0581_] _0035_ d_lut_sky130_fd_sc_hd__nor2_1
A_2268_ [_0827_ _0483_] _0518_ d_lut_sky130_fd_sc_hd__nor2_1
A_1219_ [_0768_ _0779_ _0785_ _0790_] net164 d_lut_sky130_fd_sc_hd__a2bb2o_4
A_2199_ [_0445_ _0451_ _0447_] _0452_ d_lut_sky130_fd_sc_hd__mux2_1
A_1570_ [cnb.data_register_r\_3\_ _0774_ _1035_] _1039_ d_lut_sky130_fd_sc_hd__or3_1
A_2122_ [_0375_ _0358_ _0345_ net130] _0377_ d_lut_sky130_fd_sc_hd__o211ai_2
A_2053_ [cnb.shift_register_r\_9\_ cnb.shift_register_r\_10\_] _0310_ d_lut_sky130_fd_sc_hd__or2_1
A_1906_ [_0154_ _0230_ _0231_] _0232_ d_lut_sky130_fd_sc_hd__and3_1
A_1837_ [cnb.result_out\_5\_ osr.result_r\_5\_] _0171_ d_lut_sky130_fd_sc_hd__nor2_1
A_1768_ [_0958_ net223] _0126_ d_lut_sky130_fd_sc_hd__nor2_1
A_1699_ [_1085_ _0088_ _0783_] _0089_ d_lut_sky130_fd_sc_hd__mux2_1
Aoutput31 [net31] nmatrix_col_out_22_ d_lut_sky130_fd_sc_hd__buf_2
Aoutput20 [net20] nmatrix_col_out_12_ d_lut_sky130_fd_sc_hd__buf_2
Aoutput42 [net42] nmatrix_col_out_3_ d_lut_sky130_fd_sc_hd__buf_2
Aoutput53 [net53] nmatrix_col_out_n_13_ d_lut_sky130_fd_sc_hd__buf_2
Aoutput75 [net75] nmatrix_col_out_n_4_ d_lut_sky130_fd_sc_hd__buf_2
Aoutput64 [net64] nmatrix_col_out_n_23_ d_lut_sky130_fd_sc_hd__buf_2
Aoutput97 [net97] nmatrix_rowoff_out_n_0_ d_lut_sky130_fd_sc_hd__buf_2
Aoutput86 [net86] nmatrix_row_out_n_14_ d_lut_sky130_fd_sc_hd__buf_2
A_1622_ [_0887_ _1076_ _1078_] net77 d_lut_sky130_fd_sc_hd__a21o_1
A_1553_ [_1027_] net200 d_lut_sky130_fd_sc_hd__clkbuf_4
A_1484_ [_0955_ _0755_] _0982_ d_lut_sky130_fd_sc_hd__and2_1
A_2105_ [_0345_ _0360_] _0361_ d_lut_sky130_fd_sc_hd__xor2_1
A_2036_ [_0296_] _0019_ d_lut_sky130_fd_sc_hd__clkbuf_1
A_1605_ [_1064_ _1065_ _0817_] _1066_ d_lut_sky130_fd_sc_hd__mux2_1
A_1536_ [_1015_] net111 d_lut_sky130_fd_sc_hd__buf_2
A_1467_ [_0965_ cnb.data_register_r\_11\_] _0971_ d_lut_sky130_fd_sc_hd__and2_1
A_1398_ [_0778_ _0874_ _0839_] _0926_ d_lut_sky130_fd_sc_hd__o21ai_1
A_2019_ [cnb.shift_register_r\_10\_ cnb.shift_register_r\_11\_ _0738_] _0286_ d_lut_sky130_fd_sc_hd__mux2_1
A_2370_ [_0700_ _0607_] _0608_ d_lut_sky130_fd_sc_hd__nor2_1
A_1321_ [_0793_ _0874_ _0870_] _0875_ d_lut_sky130_fd_sc_hd__o21a_1
A_1252_ [_0817_] _0818_ d_lut_sky130_fd_sc_hd__clkbuf_4
A_1183_ [cnb.data_register_r\_8\_ cnb.data_register_r\_9\_] _0758_ d_lut_sky130_fd_sc_hd__nand2_2
Aoutput210 [net210] pmatrix_row_out_n_8_ d_lut_sky130_fd_sc_hd__buf_2
Aoutput221 [net221] pmatrix_rowoff_out_n_3_ d_lut_sky130_fd_sc_hd__buf_2
Aoutput243 [net243] pmatrix_rowon_out_n_9_ d_lut_sky130_fd_sc_hd__buf_2
Aoutput232 [net232] pmatrix_rowon_out_n_13_ d_lut_sky130_fd_sc_hd__buf_2
Aoutput254 [net254] result_out_4_ d_lut_sky130_fd_sc_hd__buf_2
A_2568_ cnb.next_average_sum_w\_0\_ clknet_2_3__leaf_clk_dig_in NULL ~net282 cnb.average_sum_r\_0\_ NULL ddflop
A_2499_ osr.next_sample_count_w\_0\_ net264 ~net272 NULL osr.sample_count_r\_0\_ NULL ddflop
A_1519_ [_0781_ _0966_ _1003_] _1004_ d_lut_sky130_fd_sc_hd__or3_1
Aclkbuf_2_0__f_clk_dig_in [clknet_0_clk_dig_in] clknet_2_0__leaf_clk_dig_in d_lut_sky130_fd_sc_hd__clkbuf_16
A_1870_ [_0200_] osr.next_result_w\_3\_ d_lut_sky130_fd_sc_hd__inv_2
A_2422_ [_0607_ _0647_ _0648_ _0649_ _0651_] _0050_ d_lut_sky130_fd_sc_hd__o311a_1
A_2353_ [_0698_ osr.next_result_w\_2\_ osr.next_result_w\_8\_ _0584_ _0593_] _0594_ d_lut_sky130_fd_sc_hd__o221a_1
A_1304_ [_0768_ _0859_ _0861_] net193 d_lut_sky130_fd_sc_hd__o21ai_4
A_2284_ [_0509_ _0502_ cnb.data_register_r\_7\_] _0533_ d_lut_sky130_fd_sc_hd__a21o_1
A_1235_ [_0792_ _0796_ _0804_] net175 d_lut_sky130_fd_sc_hd__o21a_4
A_1166_ [cnb.average_sum_r\_4\_ _0747_] _0748_ d_lut_sky130_fd_sc_hd__xor2_1
A_1999_ [net271 cnb.is_holding_result_w _0275_] _0276_ d_lut_sky130_fd_sc_hd__mux2_1
A_1922_ [osr.result_r\_15\_ _0243_] _0244_ d_lut_sky130_fd_sc_hd__xnor2_1
A_1853_ [_0177_ _0183_ _0184_] _0186_ d_lut_sky130_fd_sc_hd__o21ai_1
A_1784_ [_0134_] net88 d_lut_sky130_fd_sc_hd__buf_2
A_2405_ [_0249_ _0606_ _0154_] _0637_ d_lut_sky130_fd_sc_hd__and3b_1
A_2336_ [_0702_ _0169_ _0578_ _0579_ _0580_] _0581_ d_lut_sky130_fd_sc_hd__o32a_1
A_2267_ [_0509_ _0500_] _0517_ d_lut_sky130_fd_sc_hd__nand2_1
A_1218_ [_0787_ _0789_] _0790_ d_lut_sky130_fd_sc_hd__or2_1
A_2198_ [_0397_ _0449_ _0450_] _0451_ d_lut_sky130_fd_sc_hd__a21oi_1
A_1149_ [cnb.average_counter_r\_4\_ _0732_ _0724_] _0735_ d_lut_sky130_fd_sc_hd__a21o_1
A_2121_ [_0366_ _0369_ _0371_ _0375_] _0376_ d_lut_sky130_fd_sc_hd__a31o_1
A_2052_ [cnb.shift_register_r\_9\_ cnb.shift_register_r\_10\_] _0309_ d_lut_sky130_fd_sc_hd__xnor2_1
A_1905_ [osr.result_r\_11\_ _0229_] _0231_ d_lut_sky130_fd_sc_hd__or2_1
A_1836_ [_0165_] _0170_ d_lut_sky130_fd_sc_hd__inv_2
A_1767_ [_0962_ _0125_ net111] net128 d_lut_sky130_fd_sc_hd__o21ai_4
A_1698_ [_1099_ _1100_ _0802_] _0088_ d_lut_sky130_fd_sc_hd__mux2_1
A_2319_ [_0331_ _0564_ _0565_ _0325_ _0962_] _0033_ d_lut_sky130_fd_sc_hd__a32o_1
Aoutput32 [net32] nmatrix_col_out_23_ d_lut_sky130_fd_sc_hd__buf_2
Aoutput43 [net43] nmatrix_col_out_4_ d_lut_sky130_fd_sc_hd__buf_2
Aoutput21 [net21] nmatrix_col_out_13_ d_lut_sky130_fd_sc_hd__buf_2
Aoutput76 [net76] nmatrix_col_out_n_5_ d_lut_sky130_fd_sc_hd__buf_2
Aoutput54 [net54] nmatrix_col_out_n_14_ d_lut_sky130_fd_sc_hd__buf_2
Aoutput65 [net65] nmatrix_col_out_n_24_ d_lut_sky130_fd_sc_hd__buf_2
Aoutput98 [net98] nmatrix_rowoff_out_n_10_ d_lut_sky130_fd_sc_hd__buf_2
Aoutput87 [net87] nmatrix_row_out_n_15_ d_lut_sky130_fd_sc_hd__buf_2
A_1621_ [_0911_ _1077_] _1078_ d_lut_sky130_fd_sc_hd__nor2_1
A_1552_ [_0977_ _1026_] _1027_ d_lut_sky130_fd_sc_hd__or2_1
A_1483_ [_0980_] _0981_ d_lut_sky130_fd_sc_hd__buf_2
A_2104_ [_0323_ _0359_] _0360_ d_lut_sky130_fd_sc_hd__nor2_1
A_2035_ [_0294_ net271 _0738_] _0296_ d_lut_sky130_fd_sc_hd__mux2_1
A_1819_ [cnb.result_out\_0\_ _0155_] osr.next_result_w\_0\_ d_lut_sky130_fd_sc_hd__xnor2_1
A_1604_ [_0813_ _1040_ _0787_] _1065_ d_lut_sky130_fd_sc_hd__a21oi_1
A_1535_ [cnb.data_register_r\_11\_ net8] _1015_ d_lut_sky130_fd_sc_hd__or2_1
A_1466_ [_0801_ _0951_] _0970_ d_lut_sky130_fd_sc_hd__and2_2
A_1397_ [net177] net145 d_lut_sky130_fd_sc_hd__clkinv_2
A_2018_ [_0285_] _0012_ d_lut_sky130_fd_sc_hd__clkbuf_1
A_1320_ [_0866_] _0874_ d_lut_sky130_fd_sc_hd__buf_2
A_1251_ [_0802_] _0817_ d_lut_sky130_fd_sc_hd__clkbuf_4
A_1182_ [_0756_] _0757_ d_lut_sky130_fd_sc_hd__clkbuf_4
Aoutput200 [net200] pmatrix_row_out_n_13_ d_lut_sky130_fd_sc_hd__buf_2
Aoutput244 [net244] result_out_0_ d_lut_sky130_fd_sc_hd__buf_2
Aoutput222 [net222] pmatrix_rowoff_out_n_4_ d_lut_sky130_fd_sc_hd__buf_2
Aoutput211 [net211] pmatrix_row_out_n_9_ d_lut_sky130_fd_sc_hd__buf_2
Aoutput233 [net233] pmatrix_rowon_out_n_14_ d_lut_sky130_fd_sc_hd__buf_2
Aoutput255 [net255] result_out_5_ d_lut_sky130_fd_sc_hd__buf_2
A_2567_ _0062_ clknet_2_2__leaf_clk_dig_in NULL ~net285 cnb.result_out\_11\_ NULL ddflop
A_2498_ _0022_ net264 NULL ~net272 osr.osr_mode_r\_2\_ NULL ddflop
A_1518_ [_1001_ _1002_ _0955_] _1003_ d_lut_sky130_fd_sc_hd__mux2_1
A_1449_ [net8] _0957_ d_lut_sky130_fd_sc_hd__buf_2
A_2421_ [_0583_ _0650_ _0646_] _0651_ d_lut_sky130_fd_sc_hd__o21ai_1
A_2352_ [_0702_ _0592_] _0593_ d_lut_sky130_fd_sc_hd__nand2_1
A_1303_ [_0823_ _0860_] _0861_ d_lut_sky130_fd_sc_hd__nand2_1
A_2283_ [_0530_ _0531_ _0831_] _0532_ d_lut_sky130_fd_sc_hd__a21oi_1
A_1234_ [_0797_ _0803_] _0804_ d_lut_sky130_fd_sc_hd__or2_1
A_1165_ [cnb.average_sum_r\_3\_ _0745_] _0747_ d_lut_sky130_fd_sc_hd__nand2_1
A_1998_ [_0737_] _0275_ d_lut_sky130_fd_sc_hd__clkbuf_4
A_1921_ [osr.result_r\_13\_ osr.result_r\_14\_ _0238_] _0243_ d_lut_sky130_fd_sc_hd__and3_1
A_1852_ [_0183_ _0175_ _0184_] _0185_ d_lut_sky130_fd_sc_hd__nor3b_1
A_1783_ [_1014_ _0133_] _0134_ d_lut_sky130_fd_sc_hd__or2_1
A_2404_ [_0577_ osr.next_result_w\_11\_ osr.next_result_w\_13\_ _0608_] _0636_ d_lut_sky130_fd_sc_hd__a22o_1
A_2335_ [net244] _0580_ d_lut_sky130_fd_sc_hd__inv_2
A_2266_ [_0498_ _0510_ _0512_ _0513_ _0515_] _0516_ d_lut_sky130_fd_sc_hd__a2111o_1
A_2197_ [_0437_ _0438_ _0448_] _0450_ d_lut_sky130_fd_sc_hd__and3_1
A_1217_ [_0776_ _0788_] _0789_ d_lut_sky130_fd_sc_hd__or2_1
A_1148_ [_0732_ _0733_] _0734_ d_lut_sky130_fd_sc_hd__or2_1
A_2120_ [_0372_ _0306_ _0312_ _0374_] _0375_ d_lut_sky130_fd_sc_hd__nor4b_2
A_2051_ [cnb.shift_register_r\_16\_ _0301_ _0302_ _0307_] _0308_ d_lut_sky130_fd_sc_hd__or4_2
A_1904_ [osr.result_r\_11\_ _0229_] _0230_ d_lut_sky130_fd_sc_hd__nand2_1
A_1835_ [_0169_] osr.next_result_w\_4\_ d_lut_sky130_fd_sc_hd__inv_2
A_1766_ [_0781_ _0977_ _0124_] _0125_ d_lut_sky130_fd_sc_hd__o21a_1
A_1697_ [net59] net27 d_lut_sky130_fd_sc_hd__clkinv_2
A_2318_ [_0962_ _0563_] _0565_ d_lut_sky130_fd_sc_hd__nand2_1
A_2249_ [_0287_ _0335_ _0499_] _0500_ d_lut_sky130_fd_sc_hd__or3_2
Aoutput22 [net22] nmatrix_col_out_14_ d_lut_sky130_fd_sc_hd__buf_2
Aoutput11 [net11] conv_finished_osr_out d_lut_sky130_fd_sc_hd__buf_2
Aoutput33 [net33] nmatrix_col_out_24_ d_lut_sky130_fd_sc_hd__buf_2
Aoutput66 [net66] nmatrix_col_out_n_25_ d_lut_sky130_fd_sc_hd__buf_2
Aoutput55 [net55] nmatrix_col_out_n_15_ d_lut_sky130_fd_sc_hd__buf_2
Aoutput44 [net44] nmatrix_col_out_5_ d_lut_sky130_fd_sc_hd__buf_2
Aoutput99 [net99] nmatrix_rowoff_out_n_11_ d_lut_sky130_fd_sc_hd__buf_2
Aoutput88 [net88] nmatrix_row_out_n_1_ d_lut_sky130_fd_sc_hd__buf_2
Aoutput77 [net77] nmatrix_col_out_n_6_ d_lut_sky130_fd_sc_hd__buf_2
A_1620_ [_0874_ _1037_ _0870_] _1077_ d_lut_sky130_fd_sc_hd__o21a_1
A_1551_ [_1016_ _1006_ _1007_ _1014_] _1026_ d_lut_sky130_fd_sc_hd__o22a_1
A_1482_ [_0955_ _0756_] _0980_ d_lut_sky130_fd_sc_hd__or2_1
A_2103_ [net14 _0358_] _0359_ d_lut_sky130_fd_sc_hd__xnor2_1
A_2034_ [_0295_] _0018_ d_lut_sky130_fd_sc_hd__clkbuf_1
A_1818_ [osr.result_r\_0\_ _0154_] _0155_ d_lut_sky130_fd_sc_hd__nand2_1
A_1749_ [_0818_ _1038_ _1041_] _0117_ d_lut_sky130_fd_sc_hd__a21oi_1
A_1603_ [_0843_ _1037_ _0854_] _1064_ d_lut_sky130_fd_sc_hd__o21ai_1
A_1534_ [_0802_ _0951_] _1014_ d_lut_sky130_fd_sc_hd__or2_1
A_1465_ [_0958_] _0969_ d_lut_sky130_fd_sc_hd__buf_6
A_1396_ [_0839_ _0922_ _0923_ _0843_ _0925_] net177 d_lut_sky130_fd_sc_hd__o221a_4
A_2017_ [cnb.shift_register_r\_9\_ cnb.shift_register_r\_10\_ _0275_] _0285_ d_lut_sky130_fd_sc_hd__mux2_1
A_1250_ [net186] net154 d_lut_sky130_fd_sc_hd__clkinv_2
A_1181_ [_0755_] _0756_ d_lut_sky130_fd_sc_hd__buf_2
Aoutput201 [net201] pmatrix_row_out_n_14_ d_lut_sky130_fd_sc_hd__buf_2
Aoutput212 [net212] pmatrix_rowoff_out_n_0_ d_lut_sky130_fd_sc_hd__buf_2
Aoutput223 [net223] pmatrix_rowoff_out_n_5_ d_lut_sky130_fd_sc_hd__buf_2
Aoutput234 [net234] pmatrix_rowon_out_n_15_ d_lut_sky130_fd_sc_hd__buf_2
Aoutput256 [net256] result_out_6_ d_lut_sky130_fd_sc_hd__buf_2
A_2566_ _0061_ clknet_2_0__leaf_clk_dig_in NULL ~net277 cnb.result_out\_10\_ NULL ddflop
Aoutput245 [net245] result_out_10_ d_lut_sky130_fd_sc_hd__buf_2
A_2497_ _0021_ net264 NULL ~net272 osr.osr_mode_r\_1\_ NULL ddflop
A_1517_ [_0951_ _0957_] _1002_ d_lut_sky130_fd_sc_hd__or2_1
A_1448_ [_0955_] _0956_ d_lut_sky130_fd_sc_hd__buf_6
A_1379_ [_0780_] _0915_ d_lut_sky130_fd_sc_hd__clkbuf_4
A_2420_ [_0698_ osr.next_result_w\_13\_] _0650_ d_lut_sky130_fd_sc_hd__nor2_1
A_2351_ [_0169_ _0181_ _0700_] _0592_ d_lut_sky130_fd_sc_hd__mux2_1
A_1302_ [_0848_ _0793_ _0828_] _0860_ d_lut_sky130_fd_sc_hd__a21o_1
A_2282_ [_0323_ _0481_ _0517_ _0357_] _0531_ d_lut_sky130_fd_sc_hd__a211o_1
A_1233_ [_0798_ _0800_ _0802_] _0803_ d_lut_sky130_fd_sc_hd__mux2_1
A_1164_ [_0740_ _0746_] cnb.next_average_sum_w\_3\_ d_lut_sky130_fd_sc_hd__nor2_1
A_1997_ [_0274_] _0002_ d_lut_sky130_fd_sc_hd__clkbuf_1
A_2549_ _0044_ net267 NULL ~net278 net259 NULL ddflop
Afanout280 [net286] net280 d_lut_sky130_fd_sc_hd__clkbuf_4
A_1920_ [_0156_ _0242_] osr.next_result_w\_14\_ d_lut_sky130_fd_sc_hd__nor2_1
A_1851_ [cnb.result_out\_6\_ osr.result_r\_6\_] _0184_ d_lut_sky130_fd_sc_hd__nand2_1
A_1782_ [_1006_ _1007_ _0956_] _0133_ d_lut_sky130_fd_sc_hd__mux2_1
A_2403_ [_0631_ _0633_ _0635_] _0047_ d_lut_sky130_fd_sc_hd__a21o_1
A_2334_ [_0719_] _0579_ d_lut_sky130_fd_sc_hd__buf_2
A_2265_ [_0496_ _0497_ _0514_] _0515_ d_lut_sky130_fd_sc_hd__and3_1
A_2196_ [_0437_ _0438_ _0448_] _0449_ d_lut_sky130_fd_sc_hd__a21o_1
A_1216_ [_0773_ _0774_ _0769_] _0788_ d_lut_sky130_fd_sc_hd__or3_2
A_1147_ [cnb.sampled_avg_control_r\_2\_ cnb.average_counter_r\_4\_ cnb.sampled_avg_control_r\_1\_ cnb.sampled_avg_control_r\_0\_] _0733_ d_lut_sky130_fd_sc_hd__or4bb_1
A_2050_ [cnb.shift_register_r\_4\_ cnb.shift_register_r\_5\_ cnb.shift_register_r\_7\_ cnb.shift_register_r\_6\_] _0307_ d_lut_sky130_fd_sc_hd__or4_2
A_1903_ [_0188_ _0189_ _0227_ _0228_] _0229_ d_lut_sky130_fd_sc_hd__a31o_1
A_1834_ [cnb.result_out\_4\_ _0168_] _0169_ d_lut_sky130_fd_sc_hd__xnor2_2
A_1765_ [_0956_ _0957_ _0952_] _0124_ d_lut_sky130_fd_sc_hd__a21o_1
A_1696_ [_0805_ _0086_ _0087_] net59 d_lut_sky130_fd_sc_hd__a21oi_4
A_2317_ [_0961_ _0563_] _0564_ d_lut_sky130_fd_sc_hd__or2_1
A_2248_ [_0294_ cnb.shift_register_r\_13\_ _0290_ _0292_] _0499_ d_lut_sky130_fd_sc_hd__or4b_1
A_2179_ [_0368_ _0430_ _0432_] _0433_ d_lut_sky130_fd_sc_hd__o21bai_2
Aoutput34 [net34] nmatrix_col_out_25_ d_lut_sky130_fd_sc_hd__buf_2
Aoutput12 [net264] conv_finished_out d_lut_sky130_fd_sc_hd__buf_2
Aoutput23 [net23] nmatrix_col_out_15_ d_lut_sky130_fd_sc_hd__buf_2
Aoutput67 [net67] nmatrix_col_out_n_26_ d_lut_sky130_fd_sc_hd__buf_2
Aoutput45 [net45] nmatrix_col_out_6_ d_lut_sky130_fd_sc_hd__buf_2
Aoutput56 [net56] nmatrix_col_out_n_16_ d_lut_sky130_fd_sc_hd__buf_2
Aoutput78 [net78] nmatrix_col_out_n_7_ d_lut_sky130_fd_sc_hd__buf_2
Aoutput89 [net89] nmatrix_row_out_n_2_ d_lut_sky130_fd_sc_hd__buf_2
A_1550_ [_1025_] net199 d_lut_sky130_fd_sc_hd__clkbuf_1
A_1481_ [_0806_ _0952_] _0979_ d_lut_sky130_fd_sc_hd__and2_1
A_2102_ [_0357_] _0358_ d_lut_sky130_fd_sc_hd__buf_2
A_2033_ [_0292_ _0294_ _0738_] _0295_ d_lut_sky130_fd_sc_hd__mux2_1
A_1817_ [_0716_] _0154_ d_lut_sky130_fd_sc_hd__clkinv_2
A_1748_ [net72] net40 d_lut_sky130_fd_sc_hd__clkinv_2
A_1679_ [_0768_ _0077_ _0078_] net55 d_lut_sky130_fd_sc_hd__o21ai_4
A_1602_ [_0827_ _1062_ _0829_] _1063_ d_lut_sky130_fd_sc_hd__o21a_1
A_2582_ [net13] net263 d_lut_sky130_fd_sc_hd__clkbuf_1
A_1533_ [_1013_] net210 d_lut_sky130_fd_sc_hd__clkbuf_1
A_1464_ [_0966_ _0967_ _0968_] net237 d_lut_sky130_fd_sc_hd__o21ai_4
A_1395_ [_0832_ _0924_] _0925_ d_lut_sky130_fd_sc_hd__nand2_1
A_2016_ [_0284_] _0011_ d_lut_sky130_fd_sc_hd__clkbuf_1
A_1180_ [net8] _0755_ d_lut_sky130_fd_sc_hd__inv_2
Aoutput202 [net202] pmatrix_row_out_n_15_ d_lut_sky130_fd_sc_hd__buf_2
A_2565_ _0060_ clknet_2_0__leaf_clk_dig_in NULL ~net277 cnb.result_out\_9\_ NULL ddflop
Aoutput224 [net224] pmatrix_rowoff_out_n_6_ d_lut_sky130_fd_sc_hd__buf_2
Aoutput213 [net213] pmatrix_rowoff_out_n_10_ d_lut_sky130_fd_sc_hd__buf_2
Aoutput235 [net235] pmatrix_rowon_out_n_1_ d_lut_sky130_fd_sc_hd__buf_2
Aoutput257 [net257] result_out_7_ d_lut_sky130_fd_sc_hd__buf_2
Aoutput246 [net246] result_out_11_ d_lut_sky130_fd_sc_hd__buf_2
A_1516_ [_0951_ _0957_] _1001_ d_lut_sky130_fd_sc_hd__nand2_1
A_2496_ _0020_ net264 NULL ~net272 osr.osr_mode_r\_0\_ NULL ddflop
A_1447_ [cnb.data_register_r\_11\_] _0955_ d_lut_sky130_fd_sc_hd__buf_2
A_1378_ [_0843_ _0778_ _0854_] _0914_ d_lut_sky130_fd_sc_hd__o21ai_1
A_2350_ [_0578_ _0590_ _0591_] _0038_ d_lut_sky130_fd_sc_hd__o21bai_1
A_1301_ [_0855_ _0857_ _0858_] _0859_ d_lut_sky130_fd_sc_hd__mux2_1
A_2281_ [cnb.data_register_r\_7\_ _0502_] _0530_ d_lut_sky130_fd_sc_hd__nand2_1
A_1232_ [_0801_] _0802_ d_lut_sky130_fd_sc_hd__clkbuf_4
A_1163_ [cnb.average_sum_r\_3\_ _0745_] _0746_ d_lut_sky130_fd_sc_hd__xnor2_1
A_1996_ [cnb.sampled_avg_control_r\_2\_ net4 net271] _0274_ d_lut_sky130_fd_sc_hd__mux2_1
A_2548_ _0043_ net268 NULL ~net275 net258 NULL ddflop
A_2479_ _0005_ clknet_2_3__leaf_clk_dig_in NULL ~net280 cnb.shift_register_r\_2\_ NULL ddflop
Afanout270 [net12] net270 d_lut_sky130_fd_sc_hd__clkbuf_2
Afanout281 [net286] net281 d_lut_sky130_fd_sc_hd__clkbuf_2
A_1850_ [cnb.result_out\_6\_ osr.result_r\_6\_] _0183_ d_lut_sky130_fd_sc_hd__nor2_1
A_1781_ [_0969_ _0775_] net119 d_lut_sky130_fd_sc_hd__nand2_2
A_2402_ [net247 _0582_ _0583_ _0634_] _0635_ d_lut_sky130_fd_sc_hd__a31o_1
A_2333_ [_0577_ _0718_] _0578_ d_lut_sky130_fd_sc_hd__or2_1
A_2264_ [_0509_ _0502_ _0832_] _0514_ d_lut_sky130_fd_sc_hd__a21oi_1
A_1215_ [_0786_] _0787_ d_lut_sky130_fd_sc_hd__buf_2
A_2195_ [_0368_ _0447_ _0441_] _0448_ d_lut_sky130_fd_sc_hd__mux2_1
A_1146_ [cnb.average_counter_r\_3\_ cnb.average_counter_r\_2\_ cnb.average_counter_r\_1\_ cnb.average_counter_r\_0\_] _0732_ d_lut_sky130_fd_sc_hd__and4_1
A_1979_ [net123 net91] net107 d_lut_sky130_fd_sc_hd__nand2_1
A_1902_ [_0219_ _0225_ _0226_] _0228_ d_lut_sky130_fd_sc_hd__a21bo_1
A_1833_ [_0166_ _0167_ _0154_] _0168_ d_lut_sky130_fd_sc_hd__and3b_1
A_1764_ [_0969_ _0764_ _0123_] net127 d_lut_sky130_fd_sc_hd__o21ai_4
A_1695_ [_0784_ _1075_] _0087_ d_lut_sky130_fd_sc_hd__nor2_1
A_2316_ [_0483_ _0562_] _0563_ d_lut_sky130_fd_sc_hd__xor2_1
A_2247_ [_0496_ _0497_] _0498_ d_lut_sky130_fd_sc_hd__nand2_2
A_2178_ [_0326_ _0431_ _0424_ _0430_ _0367_] _0432_ d_lut_sky130_fd_sc_hd__o311a_1
A_1129_ [osr.sample_count_r\_8\_ _0713_ _0714_ _0715_] _0716_ d_lut_sky130_fd_sc_hd__o31ai_2
Aoutput13 [net13] enable_loop_out d_lut_sky130_fd_sc_hd__buf_2
Aoutput24 [net24] nmatrix_col_out_16_ d_lut_sky130_fd_sc_hd__buf_2
Aoutput57 [net57] nmatrix_col_out_n_17_ d_lut_sky130_fd_sc_hd__buf_2
Aoutput46 [net46] nmatrix_col_out_7_ d_lut_sky130_fd_sc_hd__buf_2
Aoutput35 [net35] nmatrix_col_out_26_ d_lut_sky130_fd_sc_hd__buf_2
Aoutput79 [net79] nmatrix_col_out_n_8_ d_lut_sky130_fd_sc_hd__buf_2
Aoutput68 [net68] nmatrix_col_out_n_27_ d_lut_sky130_fd_sc_hd__buf_2
A_1480_ [_0757_ _0964_ _0978_] net241 d_lut_sky130_fd_sc_hd__o21a_2
A_2101_ [_0727_ _0731_ _0356_ _0736_] _0357_ d_lut_sky130_fd_sc_hd__a211oi_4
A_2032_ [cnb.shift_register_r\_16\_] _0294_ d_lut_sky130_fd_sc_hd__buf_6
A_1816_ [_0978_ _0964_ _1031_] net87 d_lut_sky130_fd_sc_hd__nand3_2
A_1747_ [_0934_ _1056_ _0116_] net72 d_lut_sky130_fd_sc_hd__o21a_2
A_1678_ [_0823_ _1047_] _0078_ d_lut_sky130_fd_sc_hd__nand2_1
A_1601_ [_0769_ _1037_] _1062_ d_lut_sky130_fd_sc_hd__and2_1
A_2581_ [net271] net262 d_lut_sky130_fd_sc_hd__clkbuf_1
A_1532_ [_0966_ _0982_ _0758_ _0981_] _1013_ d_lut_sky130_fd_sc_hd__or4b_4
A_1463_ [_0955_ _0957_] _0968_ d_lut_sky130_fd_sc_hd__nand2_2
A_1394_ [_0922_ _0799_ _0839_] _0924_ d_lut_sky130_fd_sc_hd__o21ai_1
A_2015_ [cnb.shift_register_r\_8\_ cnb.shift_register_r\_9\_ _0275_] _0284_ d_lut_sky130_fd_sc_hd__mux2_1
Aoutput225 [net225] pmatrix_rowoff_out_n_7_ d_lut_sky130_fd_sc_hd__buf_2
Aoutput203 [net203] pmatrix_row_out_n_1_ d_lut_sky130_fd_sc_hd__buf_2
Aoutput214 [net214] pmatrix_rowoff_out_n_11_ d_lut_sky130_fd_sc_hd__buf_2
A_2564_ _0059_ clknet_2_0__leaf_clk_dig_in NULL ~net285 cnb.result_out\_8\_ NULL ddflop
Aoutput247 [net247] result_out_12_ d_lut_sky130_fd_sc_hd__buf_2
Aoutput236 [net236] pmatrix_rowon_out_n_2_ d_lut_sky130_fd_sc_hd__buf_2
Aoutput258 [net258] result_out_8_ d_lut_sky130_fd_sc_hd__buf_2
A_1515_ [_1000_] net204 d_lut_sky130_fd_sc_hd__buf_2
A_2495_ osr.is_last_sample net266 NULL ~net278 osr.data_valid_r NULL ddflop
A_1446_ [cnb.data_register_r\_10\_] _0954_ d_lut_sky130_fd_sc_hd__buf_6
A_1377_ [net172] net140 d_lut_sky130_fd_sc_hd__clkinv_2
A_2280_ [cnb.data_register_r\_7\_ _0525_ _0526_ _0834_ _0528_] _0529_ d_lut_sky130_fd_sc_hd__a221o_1
A_1300_ [_0802_] _0858_ d_lut_sky130_fd_sc_hd__buf_4
A_1231_ [cnb.data_register_r\_8\_] _0801_ d_lut_sky130_fd_sc_hd__inv_2
A_1162_ [cnb.average_sum_r\_2\_ _0743_] _0745_ d_lut_sky130_fd_sc_hd__and2_1
A_1995_ [_0273_] _0001_ d_lut_sky130_fd_sc_hd__clkbuf_1
A_2547_ _0042_ net269 NULL ~net276 net257 NULL ddflop
A_2478_ _0004_ clknet_2_1__leaf_clk_dig_in NULL ~net280 cnb.is_holding_result_w NULL ddflop
A_1429_ [_0862_ _0943_ _0944_] net184 d_lut_sky130_fd_sc_hd__a21o_1
Afanout282 [net284] net282 d_lut_sky130_fd_sc_hd__clkbuf_4
Afanout271 [net260] net271 d_lut_sky130_fd_sc_hd__buf_4
A_1780_ [_1001_ _0132_ _0759_] net118 d_lut_sky130_fd_sc_hd__a21o_2
A_2401_ [_0182_ _0582_] _0634_ d_lut_sky130_fd_sc_hd__nor2_1
A_2332_ [_0576_] _0577_ d_lut_sky130_fd_sc_hd__buf_2
A_2263_ [_0496_ _0497_ _0502_ _0509_ _0770_] _0513_ d_lut_sky130_fd_sc_hd__a221oi_1
A_2194_ [_0368_ _0446_] _0447_ d_lut_sky130_fd_sc_hd__nand2_2
A_1214_ [_0770_ cnb.data_register_r\_7\_] _0786_ d_lut_sky130_fd_sc_hd__or2_1
A_1145_ [cnb.average_counter_r\_1\_ cnb.average_counter_r\_0\_ _0730_ cnb.sampled_avg_control_r\_2\_] _0731_ d_lut_sky130_fd_sc_hd__o22ai_4
A_1978_ [net122 net90] net106 d_lut_sky130_fd_sc_hd__nand2_1
A_1901_ [_0216_ _0217_ _0225_ _0226_] _0227_ d_lut_sky130_fd_sc_hd__and4_1
A_1832_ [osr.result_r\_4\_ _0165_] _0167_ d_lut_sky130_fd_sc_hd__nand2_1
A_1763_ [_0969_ _0764_ _0978_] _0123_ d_lut_sky130_fd_sc_hd__a21o_1
A_1694_ [_0915_ _1077_ _0085_] _0086_ d_lut_sky130_fd_sc_hd__o21a_1
A_2315_ [_0498_ _0559_ _0561_] _0562_ d_lut_sky130_fd_sc_hd__a21o_1
A_2246_ [cnb.data_register_r\_3\_ _0433_ _0495_ _0429_] _0497_ d_lut_sky130_fd_sc_hd__o211ai_4
A_2177_ [_0406_ _0408_] _0431_ d_lut_sky130_fd_sc_hd__nand2_1
A_1128_ [net6 net5 net7] _0715_ d_lut_sky130_fd_sc_hd__or3_1
Aoutput25 [net25] nmatrix_col_out_17_ d_lut_sky130_fd_sc_hd__buf_2
Aoutput14 [net14] nmatrix_bincap_out_n_0_ d_lut_sky130_fd_sc_hd__buf_2