* XSpice netlist created from SPICE and liberty sources by spi2xspice.py
*SPICE netlist created from verilog structural netlist module adc_core_digital by vlog2Spice (qflow)
.subckt adc_core_digital a_VPWR a_VGND a_clk_dig_in a_comparator_in a_config_1_in_0_ a_config_1_in_1_ a_config_1_in_2_ a_config_1_in_3_ a_config_1_in_4_ a_config_1_in_5_ a_config_1_in_6_ a_config_1_in_7_ a_config_1_in_8_ a_config_1_in_9_ a_config_1_in_10_ a_config_1_in_11_ a_config_1_in_12_ a_config_1_in_13_ a_config_1_in_14_ a_config_1_in_15_ a_config_2_in_0_ a_config_2_in_1_ a_config_2_in_2_ a_config_2_in_3_ a_config_2_in_4_ a_config_2_in_5_ a_config_2_in_6_ a_config_2_in_7_ a_config_2_in_8_ a_config_2_in_9_ a_config_2_in_10_ a_config_2_in_11_ a_config_2_in_12_ a_config_2_in_13_ a_config_2_in_14_ a_config_2_in_15_ a_conv_finished_out a_enable_loop_out a_nmatrix_bincap_out_n_0_ a_nmatrix_bincap_out_n_1_ a_nmatrix_bincap_out_n_2_ a_nmatrix_c0_out_n a_nmatrix_col_out_n_0_ a_nmatrix_col_out_n_1_ a_nmatrix_col_out_n_2_ a_nmatrix_col_out_n_3_ a_nmatrix_col_out_n_4_ a_nmatrix_col_out_n_5_ a_nmatrix_col_out_n_6_ a_nmatrix_col_out_n_7_ a_nmatrix_col_out_n_8_ a_nmatrix_col_out_n_9_ a_nmatrix_col_out_n_10_ a_nmatrix_col_out_n_11_ a_nmatrix_col_out_n_12_ a_nmatrix_col_out_n_13_ a_nmatrix_col_out_n_14_ a_nmatrix_col_out_n_15_ a_nmatrix_col_out_n_16_ a_nmatrix_col_out_n_17_ a_nmatrix_col_out_n_18_ a_nmatrix_col_out_n_19_  a_nmatrix_col_out_n_20_ a_nmatrix_col_out_n_21_ a_nmatrix_col_out_n_22_ a_nmatrix_col_out_n_23_ a_nmatrix_col_out_n_24_ a_nmatrix_col_out_n_25_ a_nmatrix_col_out_n_26_ a_nmatrix_col_out_n_27_ a_nmatrix_col_out_n_28_ a_nmatrix_col_out_n_29_  a_nmatrix_col_out_n_30_ a_nmatrix_col_out_n_31_ a_nmatrix_row_out_n_0_ a_nmatrix_row_out_n_1_ a_nmatrix_row_out_n_2_ a_nmatrix_row_out_n_3_ a_nmatrix_row_out_n_4_ a_nmatrix_row_out_n_5_ a_nmatrix_row_out_n_6_ a_nmatrix_row_out_n_7_ a_nmatrix_row_out_n_8_ a_nmatrix_row_out_n_9_  a_nmatrix_row_out_n_10_ a_nmatrix_row_out_n_11_ a_nmatrix_row_out_n_12_ a_nmatrix_row_out_n_13_ a_nmatrix_row_out_n_14_ a_nmatrix_row_out_n_15_ a_nmatrix_rowon_out_n_0_ a_nmatrix_rowon_out_n_1_ a_nmatrix_rowon_out_n_2_ a_nmatrix_rowon_out_n_3_ a_nmatrix_rowon_out_n_4_ a_nmatrix_rowon_out_n_5_ a_nmatrix_rowon_out_n_6_ a_nmatrix_rowon_out_n_7_ a_nmatrix_rowon_out_n_8_ a_nmatrix_rowon_out_n_9_ a_nmatrix_rowon_out_n_10_ a_nmatrix_rowon_out_n_11_ a_nmatrix_rowon_out_n_12_ a_nmatrix_rowon_out_n_13_ a_nmatrix_rowon_out_n_14_ a_nmatrix_rowon_out_n_15_ a_pmatrix_bincap_out_n_0_ a_pmatrix_bincap_out_n_1_ a_pmatrix_bincap_out_n_2_ a_pmatrix_c0_out_n a_pmatrix_col_out_n_0_ a_pmatrix_col_out_n_1_ a_pmatrix_col_out_n_2_ a_pmatrix_col_out_n_3_ a_pmatrix_col_out_n_4_ a_pmatrix_col_out_n_5_ a_pmatrix_col_out_n_6_ a_pmatrix_col_out_n_7_ a_pmatrix_col_out_n_8_ a_pmatrix_col_out_n_9_ a_pmatrix_col_out_n_10_ a_pmatrix_col_out_n_11_ a_pmatrix_col_out_n_12_ a_pmatrix_col_out_n_13_ a_pmatrix_col_out_n_14_ a_pmatrix_col_out_n_15_ a_pmatrix_col_out_n_16_ a_pmatrix_col_out_n_17_ a_pmatrix_col_out_n_18_ a_pmatrix_col_out_n_19_  a_pmatrix_col_out_n_20_ a_pmatrix_col_out_n_21_ a_pmatrix_col_out_n_22_ a_pmatrix_col_out_n_23_ a_pmatrix_col_out_n_24_ a_pmatrix_col_out_n_25_ a_pmatrix_col_out_n_26_ a_pmatrix_col_out_n_27_ a_pmatrix_col_out_n_28_ a_pmatrix_col_out_n_29_  a_pmatrix_col_out_n_30_ a_pmatrix_col_out_n_31_ a_pmatrix_row_out_n_0_ a_pmatrix_row_out_n_1_ a_pmatrix_row_out_n_2_ a_pmatrix_row_out_n_3_ a_pmatrix_row_out_n_4_ a_pmatrix_row_out_n_5_ a_pmatrix_row_out_n_6_ a_pmatrix_row_out_n_7_ a_pmatrix_row_out_n_8_ a_pmatrix_row_out_n_9_ a_pmatrix_row_out_n_10_ a_pmatrix_row_out_n_11_ a_pmatrix_row_out_n_12_ a_pmatrix_row_out_n_13_ a_pmatrix_row_out_n_14_ a_pmatrix_row_out_n_15_ a_pmatrix_rowon_out_n_0_ a_pmatrix_rowon_out_n_1_ a_pmatrix_rowon_out_n_2_ a_pmatrix_rowon_out_n_3_ a_pmatrix_rowon_out_n_4_ a_pmatrix_rowon_out_n_5_ a_pmatrix_rowon_out_n_6_ a_pmatrix_rowon_out_n_7_ a_pmatrix_rowon_out_n_8_ a_pmatrix_rowon_out_n_9_ a_pmatrix_rowon_out_n_10_ a_pmatrix_rowon_out_n_11_ a_pmatrix_rowon_out_n_12_ a_pmatrix_rowon_out_n_13_ a_pmatrix_rowon_out_n_14_ a_pmatrix_rowon_out_n_15_ a_result_out_0_ a_result_out_1_ a_result_out_2_ a_result_out_3_ a_result_out_4_ a_result_out_5_ a_result_out_6_ a_result_out_7_ a_result_out_8_ a_result_out_9_ a_result_out_10_ a_result_out_11_ a_result_out_12_ a_result_out_13_ a_result_out_14_ a_result_out_15_ a_rst_n a_sample_matrix_out a_sample_matrix_out_n a_sample_switch_out a_sample_switch_out_n a_nmatrix_rowoff_out_n_0_ a_nmatrix_rowoff_out_n_1_ a_nmatrix_rowoff_out_n_2_ a_nmatrix_rowoff_out_n_3_ a_nmatrix_rowoff_out_n_4_ a_nmatrix_rowoff_out_n_5_ a_nmatrix_rowoff_out_n_6_ a_nmatrix_rowoff_out_n_7_ a_nmatrix_rowoff_out_n_8_ a_nmatrix_rowoff_out_n_9_ a_nmatrix_rowoff_out_n_10_ a_nmatrix_rowoff_out_n_11_ a_nmatrix_rowoff_out_n_12_ a_nmatrix_rowoff_out_n_13_ a_nmatrix_rowoff_out_n_14_ a_nmatrix_rowoff_out_n_15_ a_nmatrix_col_out_0_ a_nmatrix_col_out_1_ a_nmatrix_col_out_2_ a_nmatrix_col_out_3_ a_nmatrix_col_out_4_ a_nmatrix_col_out_5_ a_nmatrix_col_out_6_ a_nmatrix_col_out_7_ a_nmatrix_col_out_8_ a_nmatrix_col_out_9_ a_nmatrix_col_out_10_ a_nmatrix_col_out_11_ a_nmatrix_col_out_12_ a_nmatrix_col_out_13_ a_nmatrix_col_out_14_ a_nmatrix_col_out_15_ a_nmatrix_col_out_16_ a_nmatrix_col_out_17_ a_nmatrix_col_out_18_ a_nmatrix_col_out_19_  a_nmatrix_col_out_20_ a_nmatrix_col_out_21_ a_nmatrix_col_out_22_ a_nmatrix_col_out_23_ a_nmatrix_col_out_24_ a_nmatrix_col_out_25_ a_nmatrix_col_out_26_ a_nmatrix_col_out_27_ a_nmatrix_col_out_28_ a_nmatrix_col_out_29_  a_nmatrix_col_out_30_ a_nmatrix_col_out_31_ a_pmatrix_rowoff_out_n_0_ a_pmatrix_rowoff_out_n_1_ a_pmatrix_rowoff_out_n_2_ a_pmatrix_rowoff_out_n_3_ a_pmatrix_rowoff_out_n_4_ a_pmatrix_rowoff_out_n_5_ a_pmatrix_rowoff_out_n_6_ a_pmatrix_rowoff_out_n_7_ a_pmatrix_rowoff_out_n_8_ a_pmatrix_rowoff_out_n_9_ a_pmatrix_rowoff_out_n_10_ a_pmatrix_rowoff_out_n_11_ a_pmatrix_rowoff_out_n_12_ a_pmatrix_rowoff_out_n_13_ a_pmatrix_rowoff_out_n_14_ a_pmatrix_rowoff_out_n_15_ a_pmatrix_col_out_0_ a_pmatrix_col_out_1_ a_pmatrix_col_out_2_ a_pmatrix_col_out_3_ a_pmatrix_col_out_4_ a_pmatrix_col_out_5_ a_pmatrix_col_out_6_ a_pmatrix_col_out_7_ a_pmatrix_col_out_8_ a_pmatrix_col_out_9_ a_pmatrix_col_out_10_ a_pmatrix_col_out_11_ a_pmatrix_col_out_12_ a_pmatrix_col_out_13_ a_pmatrix_col_out_14_ a_pmatrix_col_out_15_ a_pmatrix_col_out_16_ a_pmatrix_col_out_17_ a_pmatrix_col_out_18_ a_pmatrix_col_out_19_  a_pmatrix_col_out_20_ a_pmatrix_col_out_21_ a_pmatrix_col_out_22_ a_pmatrix_col_out_23_ a_pmatrix_col_out_24_ a_pmatrix_col_out_25_ a_pmatrix_col_out_26_ a_pmatrix_col_out_27_ a_pmatrix_col_out_28_ a_pmatrix_col_out_29_  a_pmatrix_col_out_30_ a_pmatrix_col_out_31_ a_conv_finished_osr_out 
A_1196_ [net7 net6 net8] _0687_ d_lut_sky130_fd_sc_hd__nor3_2
A_1197_ [\osr.sample_count_r_1_\ \osr.sample_count_r_3_\ \osr.sample_count_r_5_\ \osr.sample_count_r_7_\] _0688_ d_lut_sky130_fd_sc_hd__or4_2
A_1198_ [\osr.sample_count_r_2_\ \osr.sample_count_r_4_\ \osr.sample_count_r_6_\ \osr.sample_count_r_0_\] _0689_ d_lut_sky130_fd_sc_hd__or4b_2
A_1199_ [net7 net6 net8] _0690_ d_lut_sky130_fd_sc_hd__or3_2
A_1200_ [\osr.sample_count_r_8_\ _0688_ _0689_ _0690_] _0691_ d_lut_sky130_fd_sc_hd__o31a_1
A_1201_ [_0691_] _0692_ d_lut_sky130_fd_sc_hd__clkbuf_4
A_1202_ [\osr.osr_mode_r_1_\] _0693_ d_lut_sky130_fd_sc_hd__clkinv_2
A_1203_ [\osr.osr_mode_r_0_\] _0694_ d_lut_sky130_fd_sc_hd__clkbuf_4
A_1204_ [\osr.osr_mode_r_2_\] _0695_ d_lut_sky130_fd_sc_hd__clkbuf_4
A_1205_ [_0694_ _0695_ \osr.sample_count_r_4_\] _0696_ d_lut_sky130_fd_sc_hd__o21a_1
A_1206_ [\osr.osr_mode_r_0_\] _0697_ d_lut_sky130_fd_sc_hd__inv_2
A_1207_ [_0697_ _0695_] _0698_ d_lut_sky130_fd_sc_hd__nor2_1
A_1208_ [_0693_ _0696_ _0698_ \osr.sample_count_r_4_\] _0699_ d_lut_sky130_fd_sc_hd__o22a_1
A_1209_ [_0693_ _0698_] _0700_ d_lut_sky130_fd_sc_hd__nand2_1
A_1210_ [\osr.sample_count_r_4_\ _0700_ \osr.sample_count_r_2_\] _0701_ d_lut_sky130_fd_sc_hd__or3b_1
A_1211_ [\osr.sample_count_r_2_\ _0699_ _0701_] _0702_ d_lut_sky130_fd_sc_hd__o21ai_1
A_1212_ [_0693_ _0695_] _0703_ d_lut_sky130_fd_sc_hd__nor2_4
A_1213_ [_0694_ _0703_] _0704_ d_lut_sky130_fd_sc_hd__nand2_1
A_1214_ [\osr.osr_mode_r_1_\ \osr.osr_mode_r_0_\] _0705_ d_lut_sky130_fd_sc_hd__nor2_2
A_1215_ [\osr.osr_mode_r_2_\ \osr.sample_count_r_0_\] _0706_ d_lut_sky130_fd_sc_hd__xor2_1
A_1216_ [\osr.sample_count_r_0_\ \osr.sample_count_r_8_\ _0695_] _0707_ d_lut_sky130_fd_sc_hd__nand3b_1
A_1217_ [\osr.osr_mode_r_2_\ \osr.sample_count_r_8_\ \osr.sample_count_r_0_\] _0708_ d_lut_sky130_fd_sc_hd__or3b_1
A_1218_ [_0707_ _0708_ _0705_] _0709_ d_lut_sky130_fd_sc_hd__a21bo_1
A_1219_ [\osr.sample_count_r_8_\ _0705_ _0706_ _0709_] _0710_ d_lut_sky130_fd_sc_hd__o31a_1
A_1220_ [_0693_ _0695_] _0711_ d_lut_sky130_fd_sc_hd__or2_1
A_1221_ [_0711_] _0712_ d_lut_sky130_fd_sc_hd__buf_2
A_1222_ [_0697_ \osr.sample_count_r_4_\ \osr.sample_count_r_6_\ _0712_] _0713_ d_lut_sky130_fd_sc_hd__a211oi_1
A_1223_ [\osr.sample_count_r_6_\ _0704_ _0710_ _0688_ _0713_] _0714_ d_lut_sky130_fd_sc_hd__a2111oi_1
A_1224_ [_0692_ _0702_ _0714_] _0715_ d_lut_sky130_fd_sc_hd__and3_1
A_1225_ [_0687_ _0715_] _0716_ d_lut_sky130_fd_sc_hd__nor2_4
A_1226_ [_0716_] \osr.is_last_sample\ d_lut_sky130_fd_sc_hd__clkinv_2
A_1227_ [\cnb.shift_register_r_3_\ \cnb.shift_register_r_2_\ \cnb.shift_register_r_4_\ \cnb.shift_register_r_5_\] _0717_ d_lut_sky130_fd_sc_hd__or4_2
A_1228_ [\cnb.sampled_avg_control_r_1_\ \cnb.sampled_avg_control_r_2_\ \cnb.sampled_avg_control_r_0_\] _0718_ d_lut_sky130_fd_sc_hd__or3b_1
A_1229_ [\cnb.average_counter_r_1_\ _0718_ \cnb.average_counter_r_0_\] _0719_ d_lut_sky130_fd_sc_hd__a21o_1
A_1230_ [\cnb.average_counter_r_1_\ _0718_ _0719_] _0720_ d_lut_sky130_fd_sc_hd__o21a_1
A_1231_ [\cnb.average_counter_r_2_\ \cnb.average_counter_r_1_\ \cnb.average_counter_r_0_\] _0721_ d_lut_sky130_fd_sc_hd__and3_1
A_1232_ [\cnb.sampled_avg_control_r_2_\ \cnb.average_counter_r_3_\ _0721_ \cnb.sampled_avg_control_r_1_\] _0722_ d_lut_sky130_fd_sc_hd__or4b_1
A_1233_ [\cnb.sampled_avg_control_r_2_\ \cnb.sampled_avg_control_r_1_\ \cnb.sampled_avg_control_r_0_\] _0723_ d_lut_sky130_fd_sc_hd__nand3b_1
A_1234_ [\cnb.sampled_avg_control_r_0_\ \cnb.sampled_avg_control_r_1_\ \cnb.sampled_avg_control_r_2_\] _0724_ d_lut_sky130_fd_sc_hd__or3b_1
A_1235_ [\cnb.average_counter_r_3_\ _0721_ _0723_ _0724_] _0725_ d_lut_sky130_fd_sc_hd__a22o_1
A_1236_ [\cnb.average_counter_r_3_\ \cnb.average_counter_r_2_\ _0720_ _0722_ _0725_] _0726_ d_lut_sky130_fd_sc_hd__o311a_1
A_1237_ [\cnb.average_counter_r_4_\ _0726_ _0724_] _0727_ d_lut_sky130_fd_sc_hd__o21a_1
A_1238_ [\cnb.average_counter_r_4_\ _0726_ _0727_] _0728_ d_lut_sky130_fd_sc_hd__a21oi_4
A_1239_ [_0717_ _0728_] _0729_ d_lut_sky130_fd_sc_hd__nand2_1
A_1240_ [_0729_] _0730_ d_lut_sky130_fd_sc_hd__clkbuf_4
A_1241_ [_0730_] _0731_ d_lut_sky130_fd_sc_hd__inv_2
A_1242_ [\cnb.average_sum_r_0_\ _0731_] _0732_ d_lut_sky130_fd_sc_hd__nand2_1
A_1243_ [net2 _0732_] \cnb.next_average_sum_w_0_\ d_lut_sky130_fd_sc_hd__xnor2_1
A_1244_ [_0729_] _0733_ d_lut_sky130_fd_sc_hd__clkbuf_4
A_1245_ [\cnb.average_sum_r_0_\ net2] _0734_ d_lut_sky130_fd_sc_hd__nand2_1
A_1246_ [\cnb.average_sum_r_1_\ _0734_] _0735_ d_lut_sky130_fd_sc_hd__xor2_1
A_1247_ [_0733_ _0735_] \cnb.next_average_sum_w_1_\ d_lut_sky130_fd_sc_hd__nor2_1
A_1248_ [\cnb.average_sum_r_0_\ net2 \cnb.average_sum_r_1_\] _0736_ d_lut_sky130_fd_sc_hd__and3_1
A_1249_ [\cnb.average_sum_r_2_\ _0736_] _0737_ d_lut_sky130_fd_sc_hd__xnor2_1
A_1250_ [_0733_ _0737_] \cnb.next_average_sum_w_2_\ d_lut_sky130_fd_sc_hd__nor2_1
A_1251_ [\cnb.average_sum_r_2_\ _0736_] _0738_ d_lut_sky130_fd_sc_hd__and2_1
A_1252_ [\cnb.average_sum_r_3_\ _0738_] _0739_ d_lut_sky130_fd_sc_hd__xnor2_1
A_1253_ [_0733_ _0739_] \cnb.next_average_sum_w_3_\ d_lut_sky130_fd_sc_hd__nor2_1
A_1254_ [\cnb.average_sum_r_4_\] _0740_ d_lut_sky130_fd_sc_hd__inv_2
A_1255_ [\cnb.average_sum_r_3_\ _0738_ _0740_] _0741_ d_lut_sky130_fd_sc_hd__a21oi_1
A_1256_ [\cnb.average_sum_r_3_\ _0740_ _0738_] _0742_ d_lut_sky130_fd_sc_hd__and3_1
A_1257_ [_0741_ _0742_ _0731_] \cnb.next_average_sum_w_4_\ d_lut_sky130_fd_sc_hd__o21a_1
A_1258_ [\cnb.average_counter_r_0_\ _0731_] \cnb.next_average_counter_w_0_\ d_lut_sky130_fd_sc_hd__nand2_1
A_1259_ [\cnb.average_counter_r_1_\ \cnb.average_counter_r_0_\] _0743_ d_lut_sky130_fd_sc_hd__xnor2_1
A_1260_ [_0733_ _0743_] \cnb.next_average_counter_w_1_\ d_lut_sky130_fd_sc_hd__nor2_1
A_1261_ [\cnb.average_counter_r_1_\ \cnb.average_counter_r_0_\] _0744_ d_lut_sky130_fd_sc_hd__nand2_1
A_1262_ [\cnb.average_counter_r_2_\ _0744_] _0745_ d_lut_sky130_fd_sc_hd__xor2_1
A_1263_ [_0733_ _0745_] \cnb.next_average_counter_w_2_\ d_lut_sky130_fd_sc_hd__nor2_1
A_1264_ [\cnb.average_counter_r_3_\ _0721_] _0746_ d_lut_sky130_fd_sc_hd__xnor2_1
A_1265_ [_0733_ _0746_] \cnb.next_average_counter_w_3_\ d_lut_sky130_fd_sc_hd__nor2_1
A_1266_ [\cnb.average_counter_r_4_\] _0747_ d_lut_sky130_fd_sc_hd__inv_2
A_1267_ [\cnb.average_counter_r_3_\ _0721_ _0747_] _0748_ d_lut_sky130_fd_sc_hd__a21oi_1
A_1268_ [_0747_ \cnb.average_counter_r_3_\ _0721_] _0749_ d_lut_sky130_fd_sc_hd__and3_1
A_1269_ [_0748_ _0749_ _0731_] \cnb.next_average_counter_w_4_\ d_lut_sky130_fd_sc_hd__o21a_1
A_1270_ [\cnb.shift_register_r_6_\] _0750_ d_lut_sky130_fd_sc_hd__clkbuf_2
A_1271_ [\cnb.shift_register_r_4_\ \cnb.shift_register_r_5_\ \cnb.shift_register_r_7_\] _0751_ d_lut_sky130_fd_sc_hd__or3_1
A_1272_ [_0751_] _0752_ d_lut_sky130_fd_sc_hd__dlymetal6s2s_1
A_1273_ [\cnb.shift_register_r_3_\ \cnb.shift_register_r_1_\ \cnb.shift_register_r_2_\] _0753_ d_lut_sky130_fd_sc_hd__or3b_1
A_1274_ [_0750_ net261 _0752_ _0753_] _0754_ d_lut_sky130_fd_sc_hd__or4_1
A_1275_ [\cnb.shift_register_r_7_\ _0750_] _0755_ d_lut_sky130_fd_sc_hd__xnor2_1
A_1276_ [net261 \cnb.shift_register_r_1_\ _0717_ _0755_] _0756_ d_lut_sky130_fd_sc_hd__or4_1
A_1277_ [\cnb.shift_register_r_9_\ \cnb.shift_register_r_8_\ \cnb.shift_register_r_11_\ \cnb.shift_register_r_10_\] _0757_ d_lut_sky130_fd_sc_hd__or4_4
A_1278_ [\cnb.shift_register_r_15_\ \cnb.shift_register_r_14_\] _0758_ d_lut_sky130_fd_sc_hd__or2_1
A_1279_ [\cnb.shift_register_r_16_\ \cnb.shift_register_r_12_\ \cnb.shift_register_r_13_\] _0759_ d_lut_sky130_fd_sc_hd__or3_2
A_1280_ [_0757_ _0758_ _0759_] _0760_ d_lut_sky130_fd_sc_hd__or3_2
A_1281_ [_0754_ _0756_ _0760_] _0761_ d_lut_sky130_fd_sc_hd__a21oi_2
A_1282_ [\cnb.shift_register_r_3_\ \cnb.shift_register_r_2_\ net261 \cnb.shift_register_r_1_\] _0762_ d_lut_sky130_fd_sc_hd__or4_1
A_1283_ [_0762_] _0763_ d_lut_sky130_fd_sc_hd__buf_6
A_1284_ [\cnb.shift_register_r_4_\ \cnb.shift_register_r_5_\ \cnb.shift_register_r_7_\ \cnb.shift_register_r_6_\] _0764_ d_lut_sky130_fd_sc_hd__or4_1
A_1285_ [\cnb.shift_register_r_16_\ _0757_ _0763_ _0764_] _0765_ d_lut_sky130_fd_sc_hd__nor4_2
A_1286_ [_0765_] _0766_ d_lut_sky130_fd_sc_hd__buf_2
A_1287_ [_0758_ \cnb.shift_register_r_12_\ \cnb.shift_register_r_13_\ _0766_] _0767_ d_lut_sky130_fd_sc_hd__and4bb_1
A_1288_ [\cnb.shift_register_r_9_\] _0768_ d_lut_sky130_fd_sc_hd__buf_2
A_1289_ [_0768_] _0769_ d_lut_sky130_fd_sc_hd__inv_2
A_1290_ [\cnb.shift_register_r_8_\] _0770_ d_lut_sky130_fd_sc_hd__buf_2
A_1291_ [_0770_ \cnb.shift_register_r_10_\] _0771_ d_lut_sky130_fd_sc_hd__xnor2_1
A_1292_ [_0770_ \cnb.shift_register_r_10_\ _0768_] _0772_ d_lut_sky130_fd_sc_hd__o21a_1
A_1293_ [_0758_ _0759_ _0763_ _0764_] _0773_ d_lut_sky130_fd_sc_hd__or4_1
A_1294_ [_0773_] _0774_ d_lut_sky130_fd_sc_hd__buf_6
A_1295_ [_0769_ _0771_ _0772_ \cnb.shift_register_r_11_\ _0774_] _0775_ d_lut_sky130_fd_sc_hd__a2111oi_2
A_1296_ [_0761_ _0767_ _0775_] _0776_ d_lut_sky130_fd_sc_hd__or3_1
A_1297_ [\cnb.data_register_r_0_\ _0776_] _0777_ d_lut_sky130_fd_sc_hd__nor2_1
A_1298_ [_0761_ _0767_ _0775_ \cnb.data_register_r_0_\] _0778_ d_lut_sky130_fd_sc_hd__o31a_4
A_1299_ [_0777_ _0778_] net130 d_lut_sky130_fd_sc_hd__nor2_4
A_1300_ [net130] net15 d_lut_sky130_fd_sc_hd__clkinv_2
A_1301_ [net261] _0779_ d_lut_sky130_fd_sc_hd__buf_4
A_1302_ [\cnb.sampled_avg_control_r_0_\ \cnb.sampled_avg_control_r_2_\] _0780_ d_lut_sky130_fd_sc_hd__and2b_1
A_1303_ [net2 \cnb.average_sum_r_4_\ _0780_] _0781_ d_lut_sky130_fd_sc_hd__mux2_1
A_1304_ [\cnb.average_sum_r_2_\ \cnb.average_sum_r_3_\ \cnb.sampled_avg_control_r_0_\] _0782_ d_lut_sky130_fd_sc_hd__mux2_1
A_1305_ [_0782_ net2 \cnb.sampled_avg_control_r_2_\] _0783_ d_lut_sky130_fd_sc_hd__mux2_1
A_1306_ [_0781_ _0783_ \cnb.sampled_avg_control_r_1_\] _0784_ d_lut_sky130_fd_sc_hd__mux2_1
A_1307_ [\cnb.average_sum_r_1_\ _0784_ _0718_] _0785_ d_lut_sky130_fd_sc_hd__mux2_1
A_1308_ [_0728_ _0785_] _0786_ d_lut_sky130_fd_sc_hd__and2b_1
A_1309_ [net2 _0786_ _0717_] _0787_ d_lut_sky130_fd_sc_hd__mux2_4
A_1310_ [_0787_] _0788_ d_lut_sky130_fd_sc_hd__clkbuf_4
A_1311_ [_0776_ _0788_] _0789_ d_lut_sky130_fd_sc_hd__nand2_1
A_1312_ [\cnb.data_register_r_0_\ _0789_] _0790_ d_lut_sky130_fd_sc_hd__xor2_1
A_1313_ [_0779_ _0790_] \cnb.next_data_register_w_0_\ d_lut_sky130_fd_sc_hd__nor2_1
A_1314_ [_0779_] net14 d_lut_sky130_fd_sc_hd__inv_2
A_1315_ [\cnb.shift_register_r_14_\] _0791_ d_lut_sky130_fd_sc_hd__clkbuf_4
A_1316_ [_0750_ \cnb.shift_register_r_15_\ _0791_] _0792_ d_lut_sky130_fd_sc_hd__or3_1
A_1317_ [_0757_ _0759_ _0792_] _0793_ d_lut_sky130_fd_sc_hd__nor3_2
A_1318_ [\cnb.shift_register_r_5_\ \cnb.shift_register_r_7_\] _0794_ d_lut_sky130_fd_sc_hd__xor2_1
A_1319_ [\cnb.shift_register_r_5_\ \cnb.shift_register_r_7_\] _0795_ d_lut_sky130_fd_sc_hd__nor2_1
A_1320_ [_0794_ _0795_ \cnb.shift_register_r_3_\] _0796_ d_lut_sky130_fd_sc_hd__mux2_1
A_1321_ [\cnb.shift_register_r_2_\ \cnb.shift_register_r_4_\ net261 \cnb.shift_register_r_1_\] _0797_ d_lut_sky130_fd_sc_hd__nor4_1
A_1322_ [_0791_ \cnb.shift_register_r_13_\] _0798_ d_lut_sky130_fd_sc_hd__xor2_1
A_1323_ [\cnb.shift_register_r_15_\ \cnb.shift_register_r_12_\] _0799_ d_lut_sky130_fd_sc_hd__nor2_1
A_1324_ [_0791_ \cnb.shift_register_r_12_\ \cnb.shift_register_r_13_\ \cnb.shift_register_r_15_\] _0800_ d_lut_sky130_fd_sc_hd__nor4b_1
A_1325_ [_0798_ _0799_ _0800_] _0801_ d_lut_sky130_fd_sc_hd__a21o_1
A_1326_ [_0793_ _0796_ _0797_ _0801_ _0766_] _0802_ d_lut_sky130_fd_sc_hd__a32o_1
A_1327_ [\cnb.shift_register_r_11_\ \cnb.shift_register_r_10_\] _0803_ d_lut_sky130_fd_sc_hd__xor2_1
A_1328_ [_0768_ _0770_ _0803_] _0804_ d_lut_sky130_fd_sc_hd__or3b_1
A_1329_ [_0774_ _0804_] _0805_ d_lut_sky130_fd_sc_hd__nor2_1
A_1330_ [_0802_ _0805_] _0806_ d_lut_sky130_fd_sc_hd__or2_1
A_1331_ [_0768_ _0770_ _0759_ _0763_] _0807_ d_lut_sky130_fd_sc_hd__nor4_2
A_1332_ [_0752_ _0792_] _0808_ d_lut_sky130_fd_sc_hd__nor2_1
A_1333_ [_0807_ _0808_ _0803_] _0809_ d_lut_sky130_fd_sc_hd__and3_1
A_1334_ [\cnb.data_register_r_1_\ _0802_ _0809_] _0810_ d_lut_sky130_fd_sc_hd__or3_1
A_1335_ [\cnb.data_register_r_1_\ _0806_ _0810_] _0811_ d_lut_sky130_fd_sc_hd__a21bo_1
A_1336_ [_0778_ _0811_] net131 d_lut_sky130_fd_sc_hd__xnor2_4
A_1337_ [net131] net16 d_lut_sky130_fd_sc_hd__clkinv_2
A_1338_ [_0788_ net16] _0812_ d_lut_sky130_fd_sc_hd__nand2_1
A_1339_ [\cnb.data_register_r_1_\ _0788_ _0812_ net265] \cnb.next_data_register_w_1_\ d_lut_sky130_fd_sc_hd__o211a_1
A_1340_ [\cnb.shift_register_r_3_\ \cnb.shift_register_r_2_\ net261 \cnb.shift_register_r_1_\] _0813_ d_lut_sky130_fd_sc_hd__nor4_2
A_1341_ [_0794_ _0795_ \cnb.shift_register_r_4_\] _0814_ d_lut_sky130_fd_sc_hd__mux2_1
A_1342_ [\cnb.shift_register_r_15_\ _0791_ \cnb.shift_register_r_13_\ \cnb.shift_register_r_12_\] _0815_ d_lut_sky130_fd_sc_hd__nor4b_4
A_1343_ [_0798_ _0799_ _0815_ _0800_] _0816_ d_lut_sky130_fd_sc_hd__a211o_1
A_1344_ [_0813_ _0793_ _0814_ _0816_ _0765_] _0817_ d_lut_sky130_fd_sc_hd__a32oi_4
A_1345_ [\cnb.shift_register_r_10_\ _0807_ _0808_ \cnb.shift_register_r_11_\] _0818_ d_lut_sky130_fd_sc_hd__nand4b_4
A_1346_ [\cnb.data_register_r_2_\ _0817_ _0818_] _0819_ d_lut_sky130_fd_sc_hd__nand3b_2
A_1347_ [_0817_ _0818_ \cnb.data_register_r_2_\] _0820_ d_lut_sky130_fd_sc_hd__a21bo_1
A_1348_ [_0819_ _0820_] _0821_ d_lut_sky130_fd_sc_hd__nand2_2
A_1349_ [_0802_ _0805_ \cnb.data_register_r_1_\] _0822_ d_lut_sky130_fd_sc_hd__o21a_1
A_1350_ [_0778_ _0810_ _0822_] _0823_ d_lut_sky130_fd_sc_hd__a21o_1
A_1351_ [_0821_ _0823_] net132 d_lut_sky130_fd_sc_hd__xnor2_4
A_1352_ [net132] net17 d_lut_sky130_fd_sc_hd__clkinv_2
A_1353_ [\cnb.data_register_r_2_\ net132 _0788_] _0824_ d_lut_sky130_fd_sc_hd__mux2_1
A_1354_ [net265 _0824_] _0825_ d_lut_sky130_fd_sc_hd__and2_1
A_1355_ [_0825_] \cnb.next_data_register_w_2_\ d_lut_sky130_fd_sc_hd__clkbuf_1
A_1356_ [\cnb.data_register_r_3_\] _0826_ d_lut_sky130_fd_sc_hd__inv_2
A_1357_ [_0770_ _0768_] _0827_ d_lut_sky130_fd_sc_hd__or2b_1
A_1358_ [_0768_ _0770_] _0828_ d_lut_sky130_fd_sc_hd__or2b_1
A_1359_ [\cnb.shift_register_r_11_\ \cnb.shift_register_r_10_\] _0829_ d_lut_sky130_fd_sc_hd__or2_1
A_1360_ [_0827_ _0828_ _0829_] _0830_ d_lut_sky130_fd_sc_hd__a21o_1
A_1361_ [_0774_ _0830_] _0831_ d_lut_sky130_fd_sc_hd__or2_1
A_1362_ [_0760_ _0756_] _0832_ d_lut_sky130_fd_sc_hd__or2_1
A_1363_ [_0826_ _0831_ _0818_ _0832_] _0833_ d_lut_sky130_fd_sc_hd__nand4_4
A_1364_ [net261 \cnb.shift_register_r_1_\ _0717_ _0755_] _0834_ d_lut_sky130_fd_sc_hd__or4_1
A_1365_ [_0760_ _0834_] _0835_ d_lut_sky130_fd_sc_hd__nor2_1
A_1366_ [_0768_ _0770_ \cnb.shift_register_r_10_\ \cnb.shift_register_r_11_\] _0836_ d_lut_sky130_fd_sc_hd__or4b_2
A_1367_ [_0830_ _0836_ _0774_] _0837_ d_lut_sky130_fd_sc_hd__a21oi_1
A_1368_ [_0835_ _0837_ \cnb.data_register_r_3_\] _0838_ d_lut_sky130_fd_sc_hd__o21ai_1
A_1369_ [_0833_ _0838_] _0839_ d_lut_sky130_fd_sc_hd__and2_2
A_1370_ [_0761_ _0767_ _0775_ \cnb.data_register_r_1_\ \cnb.data_register_r_0_\] _0840_ d_lut_sky130_fd_sc_hd__o311a_1
A_1371_ [_0778_ _0806_ _0820_ _0840_ _0822_] _0841_ d_lut_sky130_fd_sc_hd__a311o_1
A_1372_ [_0817_ _0818_ \cnb.data_register_r_2_\] _0842_ d_lut_sky130_fd_sc_hd__a21boi_2
A_1373_ [_0819_ _0841_ _0842_] _0843_ d_lut_sky130_fd_sc_hd__a21oi_4
A_1374_ [_0839_ _0843_] _0844_ d_lut_sky130_fd_sc_hd__xor2_4
A_1375_ [_0844_] _0845_ d_lut_sky130_fd_sc_hd__clkbuf_4
A_1376_ [_0788_ _0845_] _0846_ d_lut_sky130_fd_sc_hd__nand2_1
A_1377_ [\cnb.data_register_r_3_\ _0788_ _0846_ net265] \cnb.next_data_register_w_3_\ d_lut_sky130_fd_sc_hd__o211a_1
A_1378_ [\cnb.data_register_r_4_\] _0847_ d_lut_sky130_fd_sc_hd__clkinv_2
A_1379_ [_0768_ \cnb.shift_register_r_11_\ \cnb.shift_register_r_10_\ _0770_] _0848_ d_lut_sky130_fd_sc_hd__or4b_2
A_1380_ [_0766_ _0815_ _0848_ _0774_] _0849_ d_lut_sky130_fd_sc_hd__o2bb2ai_4
A_1381_ [_0847_ _0849_] _0850_ d_lut_sky130_fd_sc_hd__xnor2_4
A_1382_ [\cnb.data_register_r_0_\ _0776_ _0810_ _0822_] _0851_ d_lut_sky130_fd_sc_hd__a31o_2
A_1383_ [_0819_ _0820_ _0833_ _0838_] _0852_ d_lut_sky130_fd_sc_hd__and4_1
A_1384_ [_0852_] _0853_ d_lut_sky130_fd_sc_hd__buf_6
A_1385_ [_0831_ _0818_ _0832_ _0826_] _0854_ d_lut_sky130_fd_sc_hd__a31oi_2
A_1386_ [_0842_ _0833_ _0854_] _0855_ d_lut_sky130_fd_sc_hd__a21o_2
A_1387_ [_0851_ _0853_ _0855_] _0856_ d_lut_sky130_fd_sc_hd__a21o_4
A_1388_ [_0850_ _0856_] _0857_ d_lut_sky130_fd_sc_hd__xnor2_4
A_1389_ [_0857_] _0858_ d_lut_sky130_fd_sc_hd__clkbuf_4
A_1390_ [_0847_ _0858_ _0788_] _0859_ d_lut_sky130_fd_sc_hd__mux2_1
A_1391_ [_0779_ _0859_] \cnb.next_data_register_w_4_\ d_lut_sky130_fd_sc_hd__nor2_1
A_1392_ [_0820_ _0838_] _0860_ d_lut_sky130_fd_sc_hd__nand2_1
A_1393_ [_0823_ _0853_ _0860_ _0833_] _0861_ d_lut_sky130_fd_sc_hd__a22o_2
A_1394_ [_0829_ _0827_ _0836_] _0862_ d_lut_sky130_fd_sc_hd__o21a_1
A_1395_ [_0766_ _0816_ _0862_ _0774_] _0863_ d_lut_sky130_fd_sc_hd__o2bb2a_2
A_1396_ [\cnb.data_register_r_5_\ _0863_] _0864_ d_lut_sky130_fd_sc_hd__xnor2_4
A_1397_ [\cnb.shift_register_r_16_\ _0757_ _0815_] _0865_ d_lut_sky130_fd_sc_hd__or3b_1
A_1398_ [_0758_ _0759_ _0848_] _0866_ d_lut_sky130_fd_sc_hd__or3_1
A_1399_ [_0847_ _0763_ _0764_] _0867_ d_lut_sky130_fd_sc_hd__or3_1
A_1400_ [_0865_ _0866_ _0867_] _0868_ d_lut_sky130_fd_sc_hd__a21o_1
A_1401_ [_0868_] _0869_ d_lut_sky130_fd_sc_hd__inv_2
A_1402_ [_0864_ _0869_] _0870_ d_lut_sky130_fd_sc_hd__or2_1
A_1403_ [_0850_ _0864_] _0871_ d_lut_sky130_fd_sc_hd__and2_1
A_1404_ [_0851_ _0853_ _0871_] _0872_ d_lut_sky130_fd_sc_hd__nand3_1
A_1405_ [\cnb.data_register_r_4_\ _0849_] _0873_ d_lut_sky130_fd_sc_hd__nor2_1
A_1406_ [_0873_ _0869_ _0864_] _0874_ d_lut_sky130_fd_sc_hd__mux2_1
A_1407_ [_0855_ _0871_ _0874_] _0875_ d_lut_sky130_fd_sc_hd__a21oi_2
A_1408_ [_0861_ _0870_ _0872_ _0875_] _0876_ d_lut_sky130_fd_sc_hd__o211a_1
A_1409_ [_0876_] _0877_ d_lut_sky130_fd_sc_hd__buf_2
A_1410_ [_0877_] _0878_ d_lut_sky130_fd_sc_hd__buf_4
A_1411_ [\cnb.data_register_r_5_\ _0878_ _0788_] _0879_ d_lut_sky130_fd_sc_hd__mux2_1
A_1412_ [net265 _0879_] _0880_ d_lut_sky130_fd_sc_hd__and2_1
A_1413_ [_0880_] \cnb.next_data_register_w_5_\ d_lut_sky130_fd_sc_hd__clkbuf_1
A_1414_ [_0851_ _0853_] _0881_ d_lut_sky130_fd_sc_hd__nand2_1
A_1415_ [\cnb.shift_register_r_15_\] _0882_ d_lut_sky130_fd_sc_hd__inv_2
A_1416_ [\cnb.shift_register_r_16_\ _0750_ \cnb.shift_register_r_12_\ \cnb.shift_register_r_13_\] _0883_ d_lut_sky130_fd_sc_hd__or4_1
A_1417_ [_0757_ _0752_ _0763_ _0883_] _0884_ d_lut_sky130_fd_sc_hd__nor4_1
A_1418_ [_0752_ _0792_ _0803_] _0885_ d_lut_sky130_fd_sc_hd__nor3b_1
A_1419_ [_0882_ _0791_ _0884_ _0885_ _0807_] _0886_ d_lut_sky130_fd_sc_hd__a32o_1
A_1420_ [\cnb.data_register_r_6_\ _0886_] _0887_ d_lut_sky130_fd_sc_hd__xor2_1
A_1421_ [_0850_ _0864_ _0887_] _0888_ d_lut_sky130_fd_sc_hd__nand3_1
A_1422_ [_0867_ _0865_] _0889_ d_lut_sky130_fd_sc_hd__nor2_1
A_1423_ [_0863_ _0868_ _0889_ \cnb.data_register_r_5_\] _0890_ d_lut_sky130_fd_sc_hd__o2bb2a_1
A_1424_ [_0887_ _0890_] _0891_ d_lut_sky130_fd_sc_hd__or2_1
A_1425_ [_0842_ _0833_ _0854_] _0892_ d_lut_sky130_fd_sc_hd__a21oi_2
A_1426_ [_0887_ _0890_] _0893_ d_lut_sky130_fd_sc_hd__nand2_1
A_1427_ [_0871_ _0891_ _0888_ _0892_ _0893_] _0894_ d_lut_sky130_fd_sc_hd__o221a_1
A_1428_ [_0851_ _0853_ _0855_ _0891_] _0895_ d_lut_sky130_fd_sc_hd__a211o_1
A_1429_ [_0881_ _0888_ _0894_ _0895_] _0896_ d_lut_sky130_fd_sc_hd__o211a_1
A_1430_ [_0896_] _0897_ d_lut_sky130_fd_sc_hd__clkbuf_4
A_1431_ [_0897_] _0898_ d_lut_sky130_fd_sc_hd__buf_4
A_1432_ [\cnb.data_register_r_6_\ _0898_ _0787_] _0899_ d_lut_sky130_fd_sc_hd__mux2_1
A_1433_ [net265 _0899_] _0900_ d_lut_sky130_fd_sc_hd__and2_1
A_1434_ [_0900_] \cnb.next_data_register_w_6_\ d_lut_sky130_fd_sc_hd__clkbuf_1
A_1435_ [_0752_ _0763_] _0901_ d_lut_sky130_fd_sc_hd__nor2_1
A_1436_ [\cnb.shift_register_r_15_\ \cnb.shift_register_r_13_\] _0902_ d_lut_sky130_fd_sc_hd__nor2_1
A_1437_ [_0791_ \cnb.shift_register_r_12_\] _0903_ d_lut_sky130_fd_sc_hd__xor2_1
A_1438_ [\cnb.shift_register_r_16_\ _0757_ _0902_ _0903_] _0904_ d_lut_sky130_fd_sc_hd__and4bb_1
A_1439_ [_0750_ _0901_ _0904_] _0905_ d_lut_sky130_fd_sc_hd__and3b_1
A_1440_ [_0905_] _0906_ d_lut_sky130_fd_sc_hd__clkbuf_2
A_1441_ [\cnb.data_register_r_7_\ _0906_] _0907_ d_lut_sky130_fd_sc_hd__xor2_4
A_1442_ [_0882_ _0791_ _0884_] _0908_ d_lut_sky130_fd_sc_hd__and3_1
A_1443_ [_0805_ _0908_ \cnb.data_register_r_6_\] _0909_ d_lut_sky130_fd_sc_hd__o21a_1
A_1444_ [_0890_ _0909_] _0910_ d_lut_sky130_fd_sc_hd__nor2_2
A_1445_ [_0850_ _0864_] _0911_ d_lut_sky130_fd_sc_hd__nand2_1
A_1446_ [\cnb.data_register_r_6_\ _0886_] _0912_ d_lut_sky130_fd_sc_hd__or2_1
A_1447_ [\cnb.data_register_r_7_\ _0906_] _0913_ d_lut_sky130_fd_sc_hd__xnor2_1
A_1448_ [_0850_ _0864_ _0912_ _0913_] _0914_ d_lut_sky130_fd_sc_hd__and4_1
A_1449_ [_0911_ _0907_ _0910_ _0914_ _0855_] _0915_ d_lut_sky130_fd_sc_hd__a32o_1
A_1450_ [_0881_ _0892_ _0907_ _0910_ _0915_] _0916_ d_lut_sky130_fd_sc_hd__a41oi_4
A_1451_ [_0914_] _0917_ d_lut_sky130_fd_sc_hd__inv_2
A_1452_ [_0907_ _0910_ _0912_] _0918_ d_lut_sky130_fd_sc_hd__or3b_1
A_1453_ [_0912_ _0913_ _0917_ _0881_ _0918_] _0919_ d_lut_sky130_fd_sc_hd__o221a_2
A_1454_ [_0916_ _0919_] _0920_ d_lut_sky130_fd_sc_hd__nand2_8
A_1455_ [_0920_] _0921_ d_lut_sky130_fd_sc_hd__buf_4
A_1456_ [\cnb.data_register_r_7_\ _0921_ _0787_] _0922_ d_lut_sky130_fd_sc_hd__mux2_1
A_1457_ [net265 _0922_] _0923_ d_lut_sky130_fd_sc_hd__and2_1
A_1458_ [_0923_] \cnb.next_data_register_w_7_\ d_lut_sky130_fd_sc_hd__clkbuf_1
A_1459_ [_0850_ _0864_ _0887_ _0907_] _0924_ d_lut_sky130_fd_sc_hd__and4_1
A_1460_ [_0924_] _0925_ d_lut_sky130_fd_sc_hd__buf_6
A_1461_ [_0851_ _0853_ _0925_] _0926_ d_lut_sky130_fd_sc_hd__nand3_1
A_1462_ [_0766_ _0801_] _0927_ d_lut_sky130_fd_sc_hd__and2_1
A_1463_ [_0927_] _0928_ d_lut_sky130_fd_sc_hd__clkbuf_2
A_1464_ [\cnb.data_register_r_8_\ _0928_] _0929_ d_lut_sky130_fd_sc_hd__xor2_2
A_1465_ [_0750_ \cnb.data_register_r_7_\ _0901_ _0904_] _0930_ d_lut_sky130_fd_sc_hd__and4b_1
A_1466_ [_0930_] _0931_ d_lut_sky130_fd_sc_hd__clkbuf_2
A_1467_ [_0809_ _0908_ \cnb.data_register_r_6_\] _0932_ d_lut_sky130_fd_sc_hd__o21a_1
A_1468_ [_0863_ _0868_ \cnb.data_register_r_5_\] _0933_ d_lut_sky130_fd_sc_hd__a21boi_1
A_1469_ [\cnb.data_register_r_4_\ _0766_ _0815_] _0934_ d_lut_sky130_fd_sc_hd__and3_1
A_1470_ [_0932_ _0933_ _0934_ _0907_ _0912_] _0935_ d_lut_sky130_fd_sc_hd__o311a_2
A_1471_ [_0855_ _0925_ _0929_ _0931_ _0935_] _0936_ d_lut_sky130_fd_sc_hd__a2111oi_2
A_1472_ [_0926_ _0936_] _0937_ d_lut_sky130_fd_sc_hd__nand2_2
A_1473_ [_0890_ _0909_ _0907_ _0912_] _0938_ d_lut_sky130_fd_sc_hd__o211a_1
A_1474_ [_0931_ _0938_ _0929_] _0939_ d_lut_sky130_fd_sc_hd__o21a_1
A_1475_ [_0856_ _0925_ _0929_ _0939_] _0940_ d_lut_sky130_fd_sc_hd__a31oi_4
A_1476_ [_0937_ _0940_] _0941_ d_lut_sky130_fd_sc_hd__and2_1
A_1477_ [_0941_] _0942_ d_lut_sky130_fd_sc_hd__clkbuf_4
A_1478_ [\cnb.data_register_r_8_\ _0942_ _0787_] _0943_ d_lut_sky130_fd_sc_hd__mux2_1
A_1479_ [net265 _0943_] _0944_ d_lut_sky130_fd_sc_hd__and2_1
A_1480_ [_0944_] \cnb.next_data_register_w_8_\ d_lut_sky130_fd_sc_hd__clkbuf_1
A_1481_ [_0809_ _0908_] _0945_ d_lut_sky130_fd_sc_hd__or2_1
A_1482_ [_0829_ _0827_ _0848_ _0847_ _0836_] _0946_ d_lut_sky130_fd_sc_hd__o221a_1
A_1483_ [_0946_ _0774_ _0766_ _0816_] _0947_ d_lut_sky130_fd_sc_hd__a2bb2o_1
A_1484_ [\cnb.data_register_r_4_\ _0766_ _0815_ _0947_ \cnb.data_register_r_5_\] _0948_ d_lut_sky130_fd_sc_hd__a32o_1