* XSpice netlist created from SPICE and liberty sources by spi2xspice.py
* NGSPICE file created from adc_core_digital.ext - technology: sky130A
.subckt adc_core_digital a_VPWR a_VGND a_clk_dig_in a_comparator_in 
+ a_config_1_in_0_ a_config_1_in_1_ a_config_1_in_2_ a_config_1_in_3_ a_config_1_in_4_ a_config_1_in_5_ a_config_1_in_6_ a_config_1_in_7_ a_config_1_in_8_ a_config_1_in_9_ a_config_1_in_10_ a_config_1_in_11_ a_config_1_in_12_ a_config_1_in_13_ a_config_1_in_14_ a_config_1_in_15_  
+ a_config_2_in_0_ a_config_2_in_1_ a_config_2_in_2_ a_config_2_in_3_ a_config_2_in_4_ a_config_2_in_5_ a_config_2_in_6_ a_config_2_in_7_ a_config_2_in_8_ a_config_2_in_9_ a_config_2_in_10_ a_config_2_in_11_ a_config_2_in_12_ a_config_2_in_13_ a_config_2_in_14_ a_config_2_in_15_ 
+ a_conv_finished_out a_enable_loop_out 
+ a_nmatrix_bincap_out_n_0_ a_nmatrix_bincap_out_n_1_ a_nmatrix_bincap_out_n_2_ 
+ a_nmatrix_c0_out_n 
+ a_nmatrix_col_out_n_0_ a_nmatrix_col_out_n_1_ a_nmatrix_col_out_n_2_ a_nmatrix_col_out_n_3_ a_nmatrix_col_out_n_4_ a_nmatrix_col_out_n_5_ a_nmatrix_col_out_n_6_ a_nmatrix_col_out_n_7_ a_nmatrix_col_out_n_8_ a_nmatrix_col_out_n_9_ a_nmatrix_col_out_n_10_ a_nmatrix_col_out_n_11_ a_nmatrix_col_out_n_12_ a_nmatrix_col_out_n_13_ a_nmatrix_col_out_n_14_ a_nmatrix_col_out_n_15_ a_nmatrix_col_out_n_16_ a_nmatrix_col_out_n_17_ a_nmatrix_col_out_n_18_ a_nmatrix_col_out_n_19_ a_nmatrix_col_out_n_20_ a_nmatrix_col_out_n_21_ a_nmatrix_col_out_n_22_ a_nmatrix_col_out_n_23_ a_nmatrix_col_out_n_24_ a_nmatrix_col_out_n_25_ a_nmatrix_col_out_n_26_ a_nmatrix_col_out_n_27_ a_nmatrix_col_out_n_28_ a_nmatrix_col_out_n_29_ a_nmatrix_col_out_n_30_ a_nmatrix_col_out_n_31_ 
+ a_nmatrix_row_out_n_0_ a_nmatrix_row_out_n_1_ a_nmatrix_row_out_n_2_ a_nmatrix_row_out_n_3_ a_nmatrix_row_out_n_4_ a_nmatrix_row_out_n_5_ a_nmatrix_row_out_n_6_ a_nmatrix_row_out_n_7_ a_nmatrix_row_out_n_8_ a_nmatrix_row_out_n_9_ a_nmatrix_row_out_n_10_ a_nmatrix_row_out_n_11_ a_nmatrix_row_out_n_12_ a_nmatrix_row_out_n_13_ a_nmatrix_row_out_n_14_ a_nmatrix_row_out_n_15_ 
+ a_nmatrix_rowon_out_n_0_ a_nmatrix_rowon_out_n_1_ a_nmatrix_rowon_out_n_2_ a_nmatrix_rowon_out_n_3_ a_nmatrix_rowon_out_n_4_ a_nmatrix_rowon_out_n_5_ a_nmatrix_rowon_out_n_6_ a_nmatrix_rowon_out_n_7_ a_nmatrix_rowon_out_n_8_ a_nmatrix_rowon_out_n_9_ a_nmatrix_rowon_out_n_10_ a_nmatrix_rowon_out_n_11_ a_nmatrix_rowon_out_n_12_ a_nmatrix_rowon_out_n_13_ a_nmatrix_rowon_out_n_14_ a_nmatrix_rowon_out_n_15_ 
+ a_pmatrix_bincap_out_n_0_ a_pmatrix_bincap_out_n_1_ a_pmatrix_bincap_out_n_2_ 
+ a_pmatrix_c0_out_n 
+ a_pmatrix_col_out_n_0_ a_pmatrix_col_out_n_1_ a_pmatrix_col_out_n_2_ a_pmatrix_col_out_n_3_ a_pmatrix_col_out_n_4_ a_pmatrix_col_out_n_5_ a_pmatrix_col_out_n_6_ a_pmatrix_col_out_n_7_ a_pmatrix_col_out_n_8_ a_pmatrix_col_out_n_9_ a_pmatrix_col_out_n_10_ a_pmatrix_col_out_n_11_ a_pmatrix_col_out_n_12_ a_pmatrix_col_out_n_13_ a_pmatrix_col_out_n_14_ a_pmatrix_col_out_n_15_ a_pmatrix_col_out_n_16_ a_pmatrix_col_out_n_17_ a_pmatrix_col_out_n_18_ a_pmatrix_col_out_n_19_ a_pmatrix_col_out_n_20_ a_pmatrix_col_out_n_21_ a_pmatrix_col_out_n_22_ a_pmatrix_col_out_n_23_ a_pmatrix_col_out_n_24_ a_pmatrix_col_out_n_25_ a_pmatrix_col_out_n_26_ a_pmatrix_col_out_n_27_ a_pmatrix_col_out_n_28_ a_pmatrix_col_out_n_29_ a_pmatrix_col_out_n_30_ a_pmatrix_col_out_n_31_ 
+ a_pmatrix_row_out_n_0_ a_pmatrix_row_out_n_1_ a_pmatrix_row_out_n_2_ a_pmatrix_row_out_n_3_ a_pmatrix_row_out_n_4_ a_pmatrix_row_out_n_5_ a_pmatrix_row_out_n_6_ a_pmatrix_row_out_n_7_ a_pmatrix_row_out_n_8_ a_pmatrix_row_out_n_9_ a_pmatrix_row_out_n_10_ a_pmatrix_row_out_n_11_ a_pmatrix_row_out_n_12_ a_pmatrix_row_out_n_13_ a_pmatrix_row_out_n_14_ a_pmatrix_row_out_n_15_ 
+ a_pmatrix_rowon_out_n_0_ a_pmatrix_rowon_out_n_1_ a_pmatrix_rowon_out_n_2_ a_pmatrix_rowon_out_n_3_ a_pmatrix_rowon_out_n_4_ a_pmatrix_rowon_out_n_5_ a_pmatrix_rowon_out_n_6_ a_pmatrix_rowon_out_n_7_ a_pmatrix_rowon_out_n_8_ a_pmatrix_rowon_out_n_9_ a_pmatrix_rowon_out_n_10_ a_pmatrix_rowon_out_n_11_ a_pmatrix_rowon_out_n_12_ a_pmatrix_rowon_out_n_13_ a_pmatrix_rowon_out_n_14_ a_pmatrix_rowon_out_n_15_ 
+ a_result_out_0_ a_result_out_1_ a_result_out_2_ a_result_out_3_ a_result_out_4_ a_result_out_5_ a_result_out_6_ a_result_out_7_ a_result_out_8_ a_result_out_9_ a_result_out_10_ a_result_out_11_ a_result_out_12_ a_result_out_13_ a_result_out_14_ a_result_out_15_ 
+ a_rst_n a_sample_matrix_out a_sample_matrix_out_n a_sample_switch_out a_sample_switch_out_n
A_1270_ [_1276_/C _1270_/B] _1270_/Y d_lut_sky130_fd_sc_hd__nand2_2
A_1606_ [_1601_/X _1604_/Y _1604_/B _1605_/X] _1742_/D d_lut_sky130_fd_sc_hd__o2bb2a_2
A_0985_ [_1116_/A _1117_/S] _1151_/B d_lut_sky130_fd_sc_hd__xnor2_4
A_1399_ [_1724_/Q _1770_/Q] _1407_/A d_lut_sky130_fd_sc_hd__or2_2
A_1537_ [_1537_/A] _1706_/D d_lut_sky130_fd_sc_hd__buf_1
A_1468_ [_1501_/A _1803_/A] _1777_/A d_lut_sky130_fd_sc_hd__nor2_2
A_0770_ [_1689_/Q _0768_/X _1602_/B] _1420_/A d_lut_sky130_fd_sc_hd__o21ai_4
A_1322_ [_1764_/Q _1718_/Q] _1328_/A d_lut_sky130_fd_sc_hd__or2_2
A_1253_ [_1287_/A _1270_/B _1132_/X] _1253_/Y d_lut_sky130_fd_sc_hd__o21ai_2
A_1184_ [_1205_/A _1184_/B] _1185_/A d_lut_sky130_fd_sc_hd__and2_2
A_0968_ [_1062_/B _0916_/B _0916_/C _1671_/Q] _0968_/X d_lut_sky130_fd_sc_hd__o31a_2
A_0899_ [_0912_/A _0899_/B _0899_/C] _0908_/B d_lut_sky130_fd_sc_hd__nor3_2
A_0822_ [_1750_/Q _1749_/Q] _0823_/B d_lut_sky130_fd_sc_hd__xnor2_2
A_1305_ [_1713_/Q _1410_/B] _1306_/B d_lut_sky130_fd_sc_hd__nand2_2
A_1236_ [_1255_/A _1129_/X _1243_/A _1235_/Y] _1236_/Y d_lut_sky130_fd_sc_hd__o211ai_4
A_1167_ [_1276_/B] _1221_/A d_lut_sky130_fd_sc_hd__buf_4
A_1098_ [_1067_/X _1096_/X _1087_/X _1097_/X] _1098_/X d_lut_sky130_fd_sc_hd__a31o_2
A_1021_ [_1076_/A _0925_/X _0908_/D] _1033_/B d_lut_sky130_fd_sc_hd__o21bai_4
A_1785_ [_1785_/A] _1785_/X d_lut_sky130_fd_sc_hd__buf_1
A_0805_ [input2/X _0805_/B] _1754_/D d_lut_sky130_fd_sc_hd__xnor2_2
A_1219_ [_1219_/A _1219_/B] _1219_/Y d_lut_sky130_fd_sc_hd__nor2_2
A_1570_ [_1716_/D _1718_/D _1626_/S] _1570_/X d_lut_sky130_fd_sc_hd__mux2_1
A_1004_ [_1004_/A _1004_/B] _1038_/B d_lut_sky130_fd_sc_hd__and2_2
A_1768_ _1768_/D _1770_/CLK NULL ~fanout176/X _1768_/Q NULL ddflop
A_1699_ _1699_/D _1758_/CLK NULL ~fanout178/X _1699_/Q NULL ddflop
Aoutput31 [_1294_/X] nmatrix_col_out_n_24_ d_lut_sky130_fd_sc_hd__buf_4
Aoutput42 [_1262_/Y] nmatrix_col_out_n_5_ d_lut_sky130_fd_sc_hd__buf_4
Aoutput75 [_1785_/X] nmatrix_rowon_out_n_8_ d_lut_sky130_fd_sc_hd__buf_4
Aoutput64 [_1788_/X] nmatrix_rowon_out_n_11_ d_lut_sky130_fd_sc_hd__buf_4
Aoutput20 [_1278_/X] nmatrix_col_out_n_14_ d_lut_sky130_fd_sc_hd__buf_4
Aoutput53 [_1777_/A] nmatrix_row_out_n_1_ d_lut_sky130_fd_sc_hd__buf_4
Aoutput86 [_1204_/Y] pmatrix_col_out_n_15_ d_lut_sky130_fd_sc_hd__buf_4
Aoutput97 [_1236_/Y] pmatrix_col_out_n_25_ d_lut_sky130_fd_sc_hd__buf_4
A_1622_ [_1729_/D _1569_/B _1621_/X _1604_/A] _1622_/X d_lut_sky130_fd_sc_hd__o22a_2
A_1553_ [_1565_/A _1604_/A] _1615_/C d_lut_sky130_fd_sc_hd__nand2_2
A_1484_ [_1797_/A] _1786_/A d_lut_sky130_fd_sc_hd__inv_2
A_0984_ [_0973_/X _0981_/X _0983_/X] _1117_/S d_lut_sky130_fd_sc_hd__a21oi_4
A_1605_ [_1620_/A _1720_/D _1726_/D _1569_/B _1563_/X] _1605_/X d_lut_sky130_fd_sc_hd__o221a_2
A_1536_ [_1707_/Q _1706_/Q _1542_/S] _1537_/A d_lut_sky130_fd_sc_hd__mux2_1
A_1398_ [_1724_/Q _1770_/Q] _1401_/B d_lut_sky130_fd_sc_hd__nand2_2
A_1467_ [_1467_/A _1487_/B] _1803_/A d_lut_sky130_fd_sc_hd__nand2_8
A_1321_ [_1763_/Q _1321_/B] _1717_/D d_lut_sky130_fd_sc_hd__xnor2_4
A_1252_ [_1252_/A _1265_/B] _1252_/X d_lut_sky130_fd_sc_hd__or2_2
A_1183_ [_1183_/A] _1183_/X d_lut_sky130_fd_sc_hd__buf_4
A_0967_ [_0967_/A] _1116_/A d_lut_sky130_fd_sc_hd__buf_6
A_0898_ [_0896_/Y _0897_/X _1699_/Q] _0899_/C d_lut_sky130_fd_sc_hd__mux2_1
A_1519_ [_1697_/Q _1542_/S _1663_/B] _1697_/D d_lut_sky130_fd_sc_hd__a21bo_2
A_0821_ [_1749_/Q _1542_/S] _1749_/D d_lut_sky130_fd_sc_hd__nand2_2
A_1304_ [_1420_/A] _1410_/B d_lut_sky130_fd_sc_hd__inv_6
A_1235_ [_1270_/B _1255_/B] _1235_/Y d_lut_sky130_fd_sc_hd__nand2_2
A_1166_ [_1255_/A _1256_/A _1255_/B _1164_/X _1165_/X] _1166_/X d_lut_sky130_fd_sc_hd__a221o_2
A_1097_ [_1680_/Q _1487_/A] _1097_/X d_lut_sky130_fd_sc_hd__and2b_2
A_1020_ [_1677_/Q] _1050_/C d_lut_sky130_fd_sc_hd__inv_2
A_1784_ [_1784_/A] _1784_/X d_lut_sky130_fd_sc_hd__buf_2
A_0804_ [_1754_/Q _1542_/S] _0805_/B d_lut_sky130_fd_sc_hd__nand2_2
A_1218_ [_1471_/A _1265_/A _1152_/C _1221_/A] _1219_/B d_lut_sky130_fd_sc_hd__o31a_2
A_1149_ [_1217_/A _1255_/A _1140_/X _1255_/B _1148_/Y] _1149_/X d_lut_sky130_fd_sc_hd__a221o_2
A_1003_ [_1676_/Q _1035_/B] _1016_/A d_lut_sky130_fd_sc_hd__xnor2_4
A_1767_ _1767_/D _1770_/CLK NULL ~fanout176/X _1767_/Q NULL ddflop
A_1698_ _1698_/D _1766_/CLK NULL ~fanout179/X _1698_/Q NULL ddflop
Aoutput54 [_1778_/A] nmatrix_row_out_n_2_ d_lut_sky130_fd_sc_hd__buf_4
Aoutput43 [_1264_/X] nmatrix_col_out_n_6_ d_lut_sky130_fd_sc_hd__buf_4
Aoutput10 [_1463_/X] conv_finished_out d_lut_sky130_fd_sc_hd__buf_4
Aoutput21 [_1279_/X] nmatrix_col_out_n_15_ d_lut_sky130_fd_sc_hd__buf_4
Aoutput32 [_1295_/X] nmatrix_col_out_n_25_ d_lut_sky130_fd_sc_hd__buf_4
Aoutput65 [_1789_/X] nmatrix_rowon_out_n_12_ d_lut_sky130_fd_sc_hd__buf_4
Aoutput76 [_1786_/X] nmatrix_rowon_out_n_9_ d_lut_sky130_fd_sc_hd__buf_4
Aoutput87 [_1207_/Y] pmatrix_col_out_n_16_ d_lut_sky130_fd_sc_hd__buf_4
Aoutput98 [_1238_/X] pmatrix_col_out_n_26_ d_lut_sky130_fd_sc_hd__buf_4
A_1552_ [_1584_/S _1558_/B] _1604_/A d_lut_sky130_fd_sc_hd__nand2_8
A_1621_ [_1725_/D _1727_/D _1626_/S] _1621_/X d_lut_sky130_fd_sc_hd__mux2_1
A_1483_ [_1496_/A _1487_/B _1784_/A] _1797_/A d_lut_sky130_fd_sc_hd__a21oi_4
A_0983_ [_1672_/Q _0975_/A _0948_/X _0980_/C _0982_/X] _0983_/X d_lut_sky130_fd_sc_hd__a221o_2
A_1604_ [_1604_/A _1604_/B] _1604_/Y d_lut_sky130_fd_sc_hd__nor2_2
A_1535_ [_1535_/A] _1705_/D d_lut_sky130_fd_sc_hd__buf_1
A_1397_ [_1593_/A] _1724_/D d_lut_sky130_fd_sc_hd__inv_2
A_1466_ [_1680_/Q _1466_/B] _1487_/B d_lut_sky130_fd_sc_hd__xor2_4
A_1320_ [_1318_/Y _1319_/X _1410_/B] _1321_/B d_lut_sky130_fd_sc_hd__o21ai_4
A_1251_ [_1140_/X _1255_/B _1124_/X] _1251_/Y d_lut_sky130_fd_sc_hd__a21oi_4
A_1182_ [_1205_/A _1287_/B] _1183_/A d_lut_sky130_fd_sc_hd__and2_2
A_0966_ [_0993_/A _0993_/B] _0967_/A d_lut_sky130_fd_sc_hd__or2_2
A_0897_ [_1701_/Q _1703_/Q] _0897_/X d_lut_sky130_fd_sc_hd__or2_2
A_1449_ [_1691_/Q _1449_/B _1451_/C] _1449_/X d_lut_sky130_fd_sc_hd__and3_2
A_1518_ [_1665_/S] _1663_/B d_lut_sky130_fd_sc_hd__buf_4
A_0820_ [_0818_/Y _0819_/X _1542_/S] _1758_/D d_lut_sky130_fd_sc_hd__o21a_2
A_1303_ [_1255_/B _1203_/X _1233_/A] _1303_/Y d_lut_sky130_fd_sc_hd__a21oi_2
A_1234_ [_1234_/A _1243_/A] _1234_/Y d_lut_sky130_fd_sc_hd__nand2_2
A_1165_ [_1276_/C _1265_/A _1258_/A] _1165_/X d_lut_sky130_fd_sc_hd__and3_2
A_1096_ [_1090_/X _1092_/Y _1093_/X] _1096_/X d_lut_sky130_fd_sc_hd__a21o_2
A_0949_ [_0980_/C _0975_/A _0974_/B] _0949_/Y d_lut_sky130_fd_sc_hd__nor3_2
A_1783_ [_1783_/A] _1783_/X d_lut_sky130_fd_sc_hd__buf_1
A_0803_ [_1546_/S] _1542_/S d_lut_sky130_fd_sc_hd__buf_6
A_1217_ [_1217_/A _1217_/B] _1219_/A d_lut_sky130_fd_sc_hd__nor2_2
A_1148_ [_1144_/X _1237_/B _1178_/B] _1148_/Y d_lut_sky130_fd_sc_hd__a21oi_2
A_1079_ [_1677_/Q _1048_/B _1035_/B _1035_/A] _1079_/X d_lut_sky130_fd_sc_hd__a2bb2o_2
A_1002_ [_0929_/C _0915_/B _0925_/X _1076_/A] _1035_/B d_lut_sky130_fd_sc_hd__o22a_4
A_1766_ _1766_/D _1766_/CLK NULL ~fanout173/X _1766_/Q NULL ddflop
A_1697_ _1697_/D _1766_/CLK NULL ~fanout179/X _1697_/Q NULL ddflop
Aoutput55 [_1779_/A] nmatrix_row_out_n_3_ d_lut_sky130_fd_sc_hd__buf_4
Aoutput44 [_1266_/X] nmatrix_col_out_n_7_ d_lut_sky130_fd_sc_hd__buf_4
Aoutput99 [_1241_/X] pmatrix_col_out_n_27_ d_lut_sky130_fd_sc_hd__buf_4
Aoutput66 [_1790_/X] nmatrix_rowon_out_n_13_ d_lut_sky130_fd_sc_hd__buf_4
Aoutput11 [_1809_/A] enable_loop_out d_lut_sky130_fd_sc_hd__buf_4
Aoutput88 [_1212_/Y] pmatrix_col_out_n_17_ d_lut_sky130_fd_sc_hd__buf_4
Aoutput77 [_0879_/A] pmatrix_bincap_out_n_0_ d_lut_sky130_fd_sc_hd__buf_4
Aoutput33 [_1296_/X] nmatrix_col_out_n_26_ d_lut_sky130_fd_sc_hd__buf_4
Aoutput22 [_1280_/X] nmatrix_col_out_n_16_ d_lut_sky130_fd_sc_hd__buf_4
A_1482_ [_1798_/A] _1785_/A d_lut_sky130_fd_sc_hd__inv_2
A_1620_ [_1620_/A _1723_/D] _1620_/X d_lut_sky130_fd_sc_hd__or2_2
A_1551_ [_1733_/Q _1596_/C] _1551_/Y d_lut_sky130_fd_sc_hd__nand2_2
A_1749_ _1749_/D _1765_/CLK ~fanout178/X NULL _1749_/Q NULL ddflop
A_0982_ [_0980_/C _0974_/B _0980_/D _1672_/Q] _0982_/X d_lut_sky130_fd_sc_hd__o211a_2
A_1603_ [_1742_/Q _1596_/B _1615_/A _1602_/Y] _1604_/B d_lut_sky130_fd_sc_hd__a31o_2
A_1534_ [_0989_/A _1706_/Q _1538_/S] _1535_/A d_lut_sky130_fd_sc_hd__mux2_1
A_1465_ [_1497_/A] _1501_/A d_lut_sky130_fd_sc_hd__inv_2
A_1396_ [_1770_/Q _1396_/B] _1593_/A d_lut_sky130_fd_sc_hd__xnor2_4
A_1181_ [_1144_/X _1129_/X _1175_/X _1140_/X _1179_/Y] _1181_/Y d_lut_sky130_fd_sc_hd__o221ai_2
A_1250_ [_1237_/A _1129_/X _1233_/A] _1250_/X d_lut_sky130_fd_sc_hd__o21a_2
A_0965_ [_0989_/A _1013_/B _1007_/B _1014_/B] _0993_/B d_lut_sky130_fd_sc_hd__o31a_2
A_0896_ [_1701_/Q _1703_/Q] _0896_/Y d_lut_sky130_fd_sc_hd__xnor2_2
A_1448_ [_1691_/Q _1451_/C _1449_/B] _1448_/Y d_lut_sky130_fd_sc_hd__a21oi_2
A_1517_ [_1698_/Q _1524_/S] _1665_/S d_lut_sky130_fd_sc_hd__nand2_4
A_1379_ [_1722_/Q _1768_/Q] _1385_/A d_lut_sky130_fd_sc_hd__or2_2
A_1302_ [_1248_/X _1203_/X _1221_/B _1301_/X] _1302_/X d_lut_sky130_fd_sc_hd__a211o_2
A_1233_ [_1233_/A _1256_/A] _1243_/A d_lut_sky130_fd_sc_hd__nand2_4
A_1164_ [_1164_/A] _1164_/X d_lut_sky130_fd_sc_hd__buf_4
A_1095_ [_1083_/A _1083_/B _1088_/Y _1094_/Y _1487_/A] _1095_/X d_lut_sky130_fd_sc_hd__o221a_2
A_0948_ [_0975_/A _0974_/B] _0948_/X d_lut_sky130_fd_sc_hd__or2_2
A_0879_ [_0879_/A] _0879_/Y d_lut_sky130_fd_sc_hd__inv_2
A_0802_ [_1524_/S _0887_/B] _1546_/S d_lut_sky130_fd_sc_hd__and2b_2
A_1782_ [_1782_/A] _1782_/X d_lut_sky130_fd_sc_hd__buf_1
A_1216_ [_1273_/A _1471_/A _1221_/A] _1217_/B d_lut_sky130_fd_sc_hd__a21oi_2
A_1147_ [_1287_/B] _1178_/B d_lut_sky130_fd_sc_hd__buf_6
A_1078_ [_1078_/A _1078_/B] _1078_/Y d_lut_sky130_fd_sc_hd__nor2_2
A_1001_ [_1676_/Q] _1035_/A d_lut_sky130_fd_sc_hd__inv_2
A_1765_ _1765_/D _1765_/CLK NULL ~fanout178/X _1765_/Q NULL ddflop
A_1696_ _1696_/D _1765_/CLK ~fanout172/X NULL _1808_/A NULL ddflop
Aoutput23 [_1282_/X] nmatrix_col_out_n_17_ d_lut_sky130_fd_sc_hd__buf_4
Aoutput34 [_1297_/X] nmatrix_col_out_n_27_ d_lut_sky130_fd_sc_hd__buf_4
Aoutput12 [_0879_/Y] nmatrix_bincap_out_n_0_ d_lut_sky130_fd_sc_hd__buf_4
Aoutput67 [_1791_/X] nmatrix_rowon_out_n_14_ d_lut_sky130_fd_sc_hd__buf_4
Aoutput45 [_1267_/X] nmatrix_col_out_n_8_ d_lut_sky130_fd_sc_hd__buf_4
Aoutput89 [_1215_/X] pmatrix_col_out_n_18_ d_lut_sky130_fd_sc_hd__buf_4
Aoutput78 [_0920_/A] pmatrix_bincap_out_n_1_ d_lut_sky130_fd_sc_hd__buf_4
Aoutput56 [_1780_/A] nmatrix_row_out_n_4_ d_lut_sky130_fd_sc_hd__buf_4
A_1550_ [_1615_/A] _1596_/C d_lut_sky130_fd_sc_hd__buf_4
A_1481_ [_1497_/A _1487_/B _1784_/A] _1798_/A d_lut_sky130_fd_sc_hd__a21oi_4
A_1748_ _1748_/D _1748_/CLK NULL ~fanout170/X _1748_/Q NULL ddflop
A_1679_ _1679_/D _1769_/CLK NULL ~fanout175/X _1679_/Q NULL ddflop
A_0981_ [_0974_/X _0975_/Y _0979_/X _0980_/X] _0981_/X d_lut_sky130_fd_sc_hd__a211o_4
A_1602_ [_1602_/A _1602_/B] _1602_/Y d_lut_sky130_fd_sc_hd__nor2_2
A_1464_ [_1471_/A _1496_/A] _1497_/A d_lut_sky130_fd_sc_hd__and2_4
A_1395_ [_1393_/Y _1394_/X _1410_/B] _1396_/B d_lut_sky130_fd_sc_hd__o21a_2
A_1533_ [_1533_/A] _1704_/D d_lut_sky130_fd_sc_hd__buf_1
A_1180_ [_1173_/Y _1175_/X _1179_/Y] _1180_/Y d_lut_sky130_fd_sc_hd__o21ai_2
A_0964_ [_1013_/A _1013_/C _0964_/C _0964_/D] _1007_/B d_lut_sky130_fd_sc_hd__or4_2
A_1516_ [_1507_/S _1542_/S _1682_/D] _1696_/D d_lut_sky130_fd_sc_hd__a21o_2
A_0895_ [_1698_/Q _1700_/Q _1697_/Q _1808_/A] _0899_/B d_lut_sky130_fd_sc_hd__or4_2
A_1447_ [_1692_/Q] _1449_/B d_lut_sky130_fd_sc_hd__inv_2
A_1378_ [_1721_/Q _1767_/Q] _1381_/B d_lut_sky130_fd_sc_hd__or2_2
A_1232_ [_1173_/A _1270_/B _1255_/B] _1234_/A d_lut_sky130_fd_sc_hd__o21ai_2
A_1301_ [_1276_/B _1246_/B _1246_/C _1255_/A] _1301_/X d_lut_sky130_fd_sc_hd__o31a_2
A_1163_ [_1246_/B _1246_/C] _1164_/A d_lut_sky130_fd_sc_hd__or2_2
A_1094_ [_1090_/X _1092_/Y _1093_/X] _1094_/Y d_lut_sky130_fd_sc_hd__a21oi_2
A_0947_ [_0944_/X _0946_/X _1013_/C _0859_/B] _0974_/B d_lut_sky130_fd_sc_hd__a211oi_4
A_0878_ [_0878_/A _0919_/A] _0879_/A d_lut_sky130_fd_sc_hd__nor2_2
A_1781_ [_1781_/A] _1781_/X d_lut_sky130_fd_sc_hd__buf_1
A_0801_ [_1699_/Q _1698_/Q _0946_/A] _0887_/B d_lut_sky130_fd_sc_hd__or3_4
A_1215_ [_1140_/X _1213_/Y _1214_/Y _1287_/A _1255_/B] _1215_/X d_lut_sky130_fd_sc_hd__a221o_2
A_1146_ [_1158_/A _1158_/B _1258_/A] _1237_/B d_lut_sky130_fd_sc_hd__a21oi_4
A_1077_ [_1035_/A _1035_/B _1076_/X] _1078_/B d_lut_sky130_fd_sc_hd__o21ai_4
A_1000_ [_1070_/A _1261_/C _0999_/X _1809_/A] _1675_/D d_lut_sky130_fd_sc_hd__o211a_2
A_1764_ _1764_/D _1765_/CLK NULL ~fanout173/X _1764_/Q NULL ddflop
A_1695_ _1695_/D _1748_/CLK NULL ~fanout170/X _1695_/Q NULL ddflop
A_1129_ [_1129_/A] _1129_/X d_lut_sky130_fd_sc_hd__buf_6
Aoutput24 [_1283_/X] nmatrix_col_out_n_18_ d_lut_sky130_fd_sc_hd__buf_4
Aoutput57 [_1781_/A] nmatrix_row_out_n_5_ d_lut_sky130_fd_sc_hd__buf_4
Aoutput13 [_0920_/Y] nmatrix_bincap_out_n_1_ d_lut_sky130_fd_sc_hd__buf_4
Aoutput46 [_1269_/X] nmatrix_col_out_n_9_ d_lut_sky130_fd_sc_hd__buf_4
Aoutput35 [_1298_/X] nmatrix_col_out_n_28_ d_lut_sky130_fd_sc_hd__buf_4
Aoutput68 [_1778_/X] nmatrix_rowon_out_n_1_ d_lut_sky130_fd_sc_hd__buf_4
Aoutput79 [_0939_/A] pmatrix_bincap_out_n_2_ d_lut_sky130_fd_sc_hd__buf_4
A_1480_ [_1800_/A] _1783_/A d_lut_sky130_fd_sc_hd__inv_2
A_1747_ _1747_/D _1462_/A NULL ~fanout177/X _1747_/Q NULL ddflop
A_1678_ _1678_/D _1769_/CLK NULL ~fanout175/X _1678_/Q NULL ddflop
A_0980_ [_1672_/Q _0974_/B _0980_/C _0980_/D] _0980_/X d_lut_sky130_fd_sc_hd__and4bb_2
A_1601_ [_1376_/A _1593_/A _1626_/S] _1601_/X d_lut_sky130_fd_sc_hd__mux2_1
A_1532_ [_0989_/A _1012_/B _1542_/S] _1533_/A d_lut_sky130_fd_sc_hd__mux2_1
A_1463_ [_1463_/A] _1463_/X d_lut_sky130_fd_sc_hd__buf_1
A_1394_ [_1724_/Q _1394_/B _1394_/C] _1394_/X d_lut_sky130_fd_sc_hd__and3_2
A_0963_ [_1012_/B _1708_/Q] _0964_/D d_lut_sky130_fd_sc_hd__xnor2_2
A_0894_ [_1808_/A] _1809_/A d_lut_sky130_fd_sc_hd__inv_6
A_1515_ [_1515_/A] _1686_/D d_lut_sky130_fd_sc_hd__buf_1
A_1446_ [_1683_/D _1446_/B] _1691_/D d_lut_sky130_fd_sc_hd__nor2_2
A_1377_ [_1721_/Q _1767_/Q] _1381_/A d_lut_sky130_fd_sc_hd__nand2_2
A_1231_ [_1231_/A] _1231_/X d_lut_sky130_fd_sc_hd__buf_1
A_1162_ [_1256_/A _1157_/Y _1161_/Y _1132_/X] _1162_/X d_lut_sky130_fd_sc_hd__o22a_2
A_1300_ [_1233_/A _1246_/X _1299_/Y _1240_/X] _1300_/Y d_lut_sky130_fd_sc_hd__a22oi_4
A_1093_ [_1093_/A _1093_/B] _1093_/X d_lut_sky130_fd_sc_hd__or2_2
A_0946_ [_0946_/A _1073_/B _0946_/C] _0946_/X d_lut_sky130_fd_sc_hd__or3_4
A_0877_ [_0873_/X _0876_/X _1670_/Q] _0919_/A d_lut_sky130_fd_sc_hd__a21boi_4
A_1429_ [_1731_/Q _1429_/B] _1430_/B d_lut_sky130_fd_sc_hd__xor2_2
A_1780_ [_1780_/A] _1780_/X d_lut_sky130_fd_sc_hd__buf_1
A_0800_ [_1700_/Q _1701_/Q] _0946_/A d_lut_sky130_fd_sc_hd__or2_2
A_1214_ [_1276_/C _1237_/B] _1214_/Y d_lut_sky130_fd_sc_hd__nand2_2
A_1145_ [_1151_/A _1151_/B] _1258_/A d_lut_sky130_fd_sc_hd__nor2_4
A_1076_ [_1076_/A _1076_/B] _1076_/X d_lut_sky130_fd_sc_hd__or2_4
A_0929_ [_1706_/Q _1073_/A _0929_/C _1707_/Q] _0975_/A d_lut_sky130_fd_sc_hd__nor4b_4
A_1694_ _1694_/D _1745_/CLK NULL ~fanout174/X _1694_/Q NULL ddflop
A_1763_ _1763_/D _1763_/CLK NULL ~fanout179/X _1763_/Q NULL ddflop
A_1128_ [_1151_/A _1130_/A] _1129_/A d_lut_sky130_fd_sc_hd__or2_2
A_1059_ [_1679_/Q _1059_/B] _1064_/A d_lut_sky130_fd_sc_hd__xor2_4
Aoutput14 [_0939_/Y] nmatrix_bincap_out_n_2_ d_lut_sky130_fd_sc_hd__buf_4
Aoutput25 [_1284_/X] nmatrix_col_out_n_19_ d_lut_sky130_fd_sc_hd__buf_4
Aoutput47 [_1786_/A] nmatrix_row_out_n_10_ d_lut_sky130_fd_sc_hd__buf_4
Aoutput36 [_1300_/Y] nmatrix_col_out_n_29_ d_lut_sky130_fd_sc_hd__buf_4
Aoutput69 [_1779_/X] nmatrix_rowon_out_n_2_ d_lut_sky130_fd_sc_hd__buf_4
Aoutput58 [_1782_/A] nmatrix_row_out_n_6_ d_lut_sky130_fd_sc_hd__buf_4
A_1746_ _1746_/D _1746_/CLK NULL ~fanout176/X _1746_/Q NULL ddflop
A_1677_ _1677_/D _1769_/CLK NULL ~fanout181/X _1677_/Q NULL ddflop
A_1462_ [_1462_/A _1683_/Q] _1463_/A d_lut_sky130_fd_sc_hd__and2_2
A_1600_ [_1763_/Q _1640_/B _1596_/X _1599_/X] _1741_/D d_lut_sky130_fd_sc_hd__a211o_2
A_1531_ [_1531_/A] _1703_/D d_lut_sky130_fd_sc_hd__buf_1
A_1393_ [_1394_/B _1394_/C _1724_/Q] _1393_/Y d_lut_sky130_fd_sc_hd__a21oi_2
A_1729_ _1729_/D _1745_/CLK NULL ~fanout174/X _1729_/Q NULL ddflop
A_0962_ [_0959_/X _0961_/X _1073_/A] _0993_/A d_lut_sky130_fd_sc_hd__a21oi_4
A_0893_ [_0890_/X _0892_/X _1808_/A] _1670_/D d_lut_sky130_fd_sc_hd__a21oi_2
A_1445_ [_1691_/Q _1451_/C] _1446_/B d_lut_sky130_fd_sc_hd__xnor2_2
A_1514_ [_1686_/Q input8/X _1514_/S] _1515_/A d_lut_sky130_fd_sc_hd__mux2_1
A_1376_ [_1376_/A] _1722_/D d_lut_sky130_fd_sc_hd__inv_2
A_1161_ [_1265_/A _1198_/B _1237_/A] _1161_/Y d_lut_sky130_fd_sc_hd__a21oi_2
A_1230_ [_1230_/A _1229_/X] _1231_/A d_lut_sky130_fd_sc_hd__or2b_2
A_1092_ [_1116_/A _1061_/C _1116_/B] _1092_/Y d_lut_sky130_fd_sc_hd__o21ai_2
A_0876_ [_1073_/A _0859_/D _0874_/X _0875_/X _0849_/A] _0876_/X d_lut_sky130_fd_sc_hd__o32a_2
A_0945_ [_1703_/Q _1702_/Q] _0946_/C d_lut_sky130_fd_sc_hd__xnor2_2
A_1428_ [_1730_/Q _1428_/B] _1429_/B d_lut_sky130_fd_sc_hd__nand2_2
A_1359_ [_1717_/Q _1402_/C _1402_/D] _1359_/X d_lut_sky130_fd_sc_hd__and3_2
A_1213_ [_1276_/A _1471_/A] _1213_/Y d_lut_sky130_fd_sc_hd__nor2_2
A_1144_ [_1276_/B] _1144_/X d_lut_sky130_fd_sc_hd__buf_6
A_1075_ [_1093_/A] _1083_/A d_lut_sky130_fd_sc_hd__inv_2
A_0859_ [_1073_/A _0859_/B _0859_/C _0859_/D] _0859_/X d_lut_sky130_fd_sc_hd__or4_4
A_0928_ [_1013_/C _0912_/A _0923_/X _0927_/X _1076_/A] _0980_/D d_lut_sky130_fd_sc_hd__o32ai_4
A_1693_ _1693_/D _1742_/CLK NULL ~fanout171/X _1693_/Q NULL ddflop
A_1762_ _1762_/D _1766_/CLK NULL ~fanout179/X _1762_/Q NULL ddflop
A_1058_ [_1058_/A _1058_/B _1058_/C _1058_/D] _1059_/B d_lut_sky130_fd_sc_hd__nor4_4
A_1127_ [_1127_/A _1127_/B] _1151_/A d_lut_sky130_fd_sc_hd__xnor2_4
Aoutput48 [_1787_/A] nmatrix_row_out_n_11_ d_lut_sky130_fd_sc_hd__buf_4
Aoutput26 [_1251_/Y] nmatrix_col_out_n_1_ d_lut_sky130_fd_sc_hd__buf_4
Aoutput15 [_1250_/X] nmatrix_col_out_n_0_ d_lut_sky130_fd_sc_hd__buf_4
Aoutput37 [_1254_/X] nmatrix_col_out_n_2_ d_lut_sky130_fd_sc_hd__buf_4
Aoutput59 [_1783_/A] nmatrix_row_out_n_7_ d_lut_sky130_fd_sc_hd__buf_4
A_1745_ _1745_/D _1745_/CLK NULL ~fanout174/X _1745_/Q NULL ddflop
A_1676_ _1676_/D _1769_/CLK NULL ~fanout181/X _1676_/Q NULL ddflop
Aadc_core_digital_191 nmatrix_c0_out_n dzero
A_1461_ [_1461_/A] _1682_/D d_lut_sky130_fd_sc_hd__buf_1
A_1392_ [_1769_/Q _1392_/B] _1394_/C d_lut_sky130_fd_sc_hd__nand2_2
A_1530_ [_1703_/Q _1012_/B _1538_/S] _1531_/A d_lut_sky130_fd_sc_hd__mux2_1
A_1728_ _1728_/D _1745_/CLK NULL ~fanout174/X _1728_/Q NULL ddflop
A_1659_ [_1678_/D _1767_/Q _1665_/S] _1660_/A d_lut_sky130_fd_sc_hd__mux2_1
A_0961_ [_1026_/B _0964_/C _1007_/A _1012_/B] _0961_/X d_lut_sky130_fd_sc_hd__or4b_2
A_0892_ [_0873_/X _0876_/X _1070_/A _1670_/Q] _0892_/X d_lut_sky130_fd_sc_hd__a211o_2
A_1444_ [_1690_/Q _1444_/B] _1451_/C d_lut_sky130_fd_sc_hd__and2_2
A_1513_ [_1513_/A] _1685_/D d_lut_sky130_fd_sc_hd__buf_1
A_1375_ [_1768_/Q _1375_/B] _1376_/A d_lut_sky130_fd_sc_hd__xnor2_4
A_1091_ [_1078_/A _1078_/B _1079_/X _1076_/X] _1116_/B d_lut_sky130_fd_sc_hd__a2bb2o_2
A_1160_ [_1138_/A _1138_/B _1151_/A] _1198_/B d_lut_sky130_fd_sc_hd__a21o_2
A_0944_ [_1013_/A _1013_/B _0944_/C] _0944_/X d_lut_sky130_fd_sc_hd__or3_4
A_0875_ [_1073_/C _1005_/B _0875_/C _0875_/D] _0875_/X d_lut_sky130_fd_sc_hd__or4_2
A_1427_ [_1514_/S _1427_/B] _1730_/D d_lut_sky130_fd_sc_hd__nor2_2
A_1358_ [_1402_/C _1402_/D _1717_/Q] _1358_/X d_lut_sky130_fd_sc_hd__a21o_2
A_1289_ [_1151_/A _1151_/B _1221_/B _1219_/A _1288_/X] _1289_/X d_lut_sky130_fd_sc_hd__a311o_4
A_1212_ [_1129_/X _1209_/X _1211_/Y] _1212_/Y d_lut_sky130_fd_sc_hd__o21ai_4
A_1143_ [_1143_/A] _1255_/B d_lut_sky130_fd_sc_hd__buf_6
A_1074_ [_1712_/Q _1058_/B _1085_/C _1074_/D] _1093_/A d_lut_sky130_fd_sc_hd__and4bb_2
A_0927_ [_1084_/A _0924_/Y _0925_/X _0926_/X] _0927_/X d_lut_sky130_fd_sc_hd__o211a_4
A_0858_ [_0989_/A _0858_/B] _0859_/D d_lut_sky130_fd_sc_hd__nor2_2
A_0789_ [_1667_/Q _1668_/Q _1669_/Q] _0789_/X d_lut_sky130_fd_sc_hd__or3b_2
A_1761_ _1761_/D _1769_/CLK NULL ~fanout181/X _1761_/Q NULL ddflop
A_1692_ _1692_/D _1748_/CLK NULL ~fanout171/X _1692_/Q NULL ddflop
A_1126_ [_1126_/A] _1237_/A d_lut_sky130_fd_sc_hd__buf_6
A_1057_ [_1070_/A _1287_/B _1056_/X _1809_/A] _1678_/D d_lut_sky130_fd_sc_hd__o211a_2
Aoutput38 [_1302_/X] nmatrix_col_out_n_30_ d_lut_sky130_fd_sc_hd__buf_4
Aoutput49 [_1788_/A] nmatrix_row_out_n_12_ d_lut_sky130_fd_sc_hd__buf_4
Aoutput16 [_1271_/X] nmatrix_col_out_n_10_ d_lut_sky130_fd_sc_hd__buf_4
Aoutput27 [_1286_/X] nmatrix_col_out_n_20_ d_lut_sky130_fd_sc_hd__buf_4
A_1744_ _1744_/D _1746_/CLK NULL ~fanout175/X _1744_/Q NULL ddflop
A_1675_ _1675_/D _1769_/CLK NULL ~fanout181/X _1675_/Q NULL ddflop
Aadc_core_digital_192 nmatrix_row_out_n_0_ dzero
A_1109_ [_1116_/A _1117_/S _1108_/X] _1111_/D d_lut_sky130_fd_sc_hd__or3b_4
A_1391_ [_1769_/Q _1392_/B _1723_/Q] _1394_/B d_lut_sky130_fd_sc_hd__o21ai_2
A_1460_ [_1697_/Q _1548_/S] _1461_/A d_lut_sky130_fd_sc_hd__and2_2
A_1727_ _1727_/D _1745_/CLK NULL ~fanout174/X _1727_/Q NULL ddflop
A_1658_ [_1658_/A] _1766_/D d_lut_sky130_fd_sc_hd__buf_1
A_1589_ [_1739_/Q _1596_/B _1596_/C _1588_/X] _1589_/X d_lut_sky130_fd_sc_hd__a31o_2
A_0960_ [_0989_/A _1014_/B _1013_/B] _1007_/A d_lut_sky130_fd_sc_hd__or3_2
A_1512_ [_1584_/S input7/X _1514_/S] _1513_/A d_lut_sky130_fd_sc_hd__mux2_1
A_0891_ [_1043_/S] _1070_/A d_lut_sky130_fd_sc_hd__inv_4
A_1443_ [_1683_/D _1443_/B] _1690_/D d_lut_sky130_fd_sc_hd__nor2_2
A_1374_ [_1372_/Y _1373_/X _1410_/B] _1375_/B d_lut_sky130_fd_sc_hd__o21a_2
A_1090_ [_0973_/X _0981_/X _0983_/X _1115_/A] _1090_/X d_lut_sky130_fd_sc_hd__a211o_2
A_0874_ [_0989_/A _0990_/A _1073_/C _1005_/B _1707_/Q] _0874_/X d_lut_sky130_fd_sc_hd__a2111o_2
A_0943_ [_0989_/A _1012_/B] _0944_/C d_lut_sky130_fd_sc_hd__xnor2_2
A_1426_ [_1730_/Q _1428_/B] _1427_/B d_lut_sky130_fd_sc_hd__xnor2_2
A_1357_ [_1764_/Q] _1602_/A d_lut_sky130_fd_sc_hd__inv_2
A_1288_ [_1151_/B _1273_/A _1276_/B _1292_/B] _1288_/X d_lut_sky130_fd_sc_hd__a31o_2
A_1142_ [_1276_/A _1276_/B] _1143_/A d_lut_sky130_fd_sc_hd__nor2_2
A_1211_ [_1270_/B _1210_/Y _1287_/A] _1211_/Y d_lut_sky130_fd_sc_hd__o21ai_2
A_1073_ [_1073_/A _1073_/B _1073_/C] _1085_/C d_lut_sky130_fd_sc_hd__nor3_2
A_0857_ [_1012_/B _1706_/Q] _0858_/B d_lut_sky130_fd_sc_hd__xor2_2
A_0926_ [_1058_/B _1708_/Q _1050_/B _1074_/D] _0926_/X d_lut_sky130_fd_sc_hd__or4b_2
A_0788_ [_1435_/B] _1683_/D d_lut_sky130_fd_sc_hd__inv_6
A_1409_ [_1725_/Q _1409_/B _1409_/C _1409_/D] _1410_/C d_lut_sky130_fd_sc_hd__or4_2
A_1691_ _1691_/D _1742_/CLK NULL ~fanout171/X _1691_/Q NULL ddflop
A_1760_ _1760_/D _1766_/CLK NULL ~fanout179/X _1760_/Q NULL ddflop
A_1125_ [_1205_/A _1276_/B] _1126_/A d_lut_sky130_fd_sc_hd__or2_2
A_1056_ [_1678_/Q _1101_/B] _1056_/X d_lut_sky130_fd_sc_hd__or2_2
Aoutput17 [_1272_/X] nmatrix_col_out_n_11_ d_lut_sky130_fd_sc_hd__buf_4
Aoutput28 [_1289_/X] nmatrix_col_out_n_21_ d_lut_sky130_fd_sc_hd__buf_4
Aoutput39 [_1303_/Y] nmatrix_col_out_n_31_ d_lut_sky130_fd_sc_hd__buf_4
A_0909_ [_1699_/Q _1701_/Q] _0909_/Y d_lut_sky130_fd_sc_hd__xnor2_2
A_1743_ _1743_/D _1743_/CLK NULL ~fanout172/X _1743_/Q NULL ddflop
A_1674_ _1674_/D _1769_/CLK NULL ~fanout181/X _1674_/Q NULL ddflop
Aadc_core_digital_193 pmatrix_row_out_n_0_ dzero
A_1039_ [_1116_/A _1039_/B _1046_/B _1039_/D] _1039_/X d_lut_sky130_fd_sc_hd__or4_2
A_1108_ [_1190_/A _1107_/Y _1116_/B] _1108_/X d_lut_sky130_fd_sc_hd__mux2_1
A_1390_ [_1769_/Q _1390_/B] _1723_/D d_lut_sky130_fd_sc_hd__xnor2_4
A_1726_ _1726_/D _1742_/CLK NULL ~fanout171/X _1726_/Q NULL ddflop
A_1588_ [_1761_/Q _1640_/B] _1588_/X d_lut_sky130_fd_sc_hd__and2_2
A_1657_ [_1677_/D _1766_/Q _1665_/S] _1658_/A d_lut_sky130_fd_sc_hd__mux2_1
A_0890_ [_0869_/B _1101_/B _1670_/Q] _0890_/X d_lut_sky130_fd_sc_hd__a21bo_2
A_1442_ [_1690_/Q _1444_/B] _1443_/B d_lut_sky130_fd_sc_hd__xnor2_2
A_1511_ [_1511_/A] _1684_/D d_lut_sky130_fd_sc_hd__buf_1
A_1373_ [_1722_/Q _1373_/B _1373_/C] _1373_/X d_lut_sky130_fd_sc_hd__and3_2
A_1709_ _1709_/D _1770_/CLK NULL ~fanout182/X _1709_/Q NULL ddflop
A_0873_ [_0946_/A _0836_/X _0912_/A _0871_/X _1058_/D] _0873_/X d_lut_sky130_fd_sc_hd__o32a_2
A_0942_ [_1673_/Q] _0980_/C d_lut_sky130_fd_sc_hd__buf_6
A_1425_ [_1728_/Q _1729_/Q _1432_/C] _1428_/B d_lut_sky130_fd_sc_hd__and3_2
A_1356_ [_1762_/Q _1356_/B] _1716_/D d_lut_sky130_fd_sc_hd__xnor2_2
A_1287_ [_1287_/A _1287_/B] _1292_/B d_lut_sky130_fd_sc_hd__nor2_2
A_1072_ [_1507_/S _1072_/B] _1680_/D d_lut_sky130_fd_sc_hd__nor2_2
A_1210_ [_1276_/A _1276_/C] _1210_/Y d_lut_sky130_fd_sc_hd__nand2_2
A_1141_ [_1205_/A] _1276_/A d_lut_sky130_fd_sc_hd__buf_6
A_0787_ [_1607_/B _1563_/A] _1435_/B d_lut_sky130_fd_sc_hd__nor2_8
A_0856_ [_0989_/A _0990_/A _1707_/Q] _0859_/C d_lut_sky130_fd_sc_hd__a21o_2
A_0925_ [_1074_/D _1708_/Q _1709_/Q _1710_/Q] _0925_/X d_lut_sky130_fd_sc_hd__or4b_4
A_1408_ [_1409_/B _1409_/C _1409_/D _1725_/Q] _1418_/C d_lut_sky130_fd_sc_hd__o31a_4
A_1339_ [_1719_/Q _1328_/A _1328_/B _1765_/Q] _1339_/X d_lut_sky130_fd_sc_hd__a31o_2
A_1690_ _1690_/D _1745_/CLK NULL ~fanout174/X _1690_/Q NULL ddflop
A_1124_ [_1173_/A _1130_/A _1131_/A _1276_/C] _1124_/X d_lut_sky130_fd_sc_hd__o31a_4
A_1055_ [_1170_/S] _1287_/B d_lut_sky130_fd_sc_hd__buf_4
Aoutput18 [_1274_/X] nmatrix_col_out_n_12_ d_lut_sky130_fd_sc_hd__buf_4
Aoutput29 [_1290_/X] nmatrix_col_out_n_22_ d_lut_sky130_fd_sc_hd__buf_4
A_0839_ [_1074_/D _1058_/B] _1084_/A d_lut_sky130_fd_sc_hd__or2_4
A_0908_ [_1671_/Q _0908_/B _1062_/B _0908_/D] _0918_/A d_lut_sky130_fd_sc_hd__or4_2
A_1742_ _1742_/D _1742_/CLK NULL ~fanout172/X _1742_/Q NULL ddflop
A_1673_ _1673_/D _1766_/CLK NULL ~fanout179/X _1673_/Q NULL ddflop
Aadc_core_digital_194 nmatrix_rowon_out_n_15_ done
A_1107_ [_1016_/A _1037_/B _1190_/A] _1107_/Y d_lut_sky130_fd_sc_hd__a21oi_2