* NGSPICE file created from adc_top.ext - technology: sky130A

.subckt adc_top_postlayout result_out[0] result_out[1] result_out[2] result_out[3] result_out[4] result_out[5] result_out[6] result_out[7] result_out[8] result_out[9]
+ result_out[10] result_out[11] result_out[12] result_out[13] result_out[14] result_out[15] VDD VSS conversion_finished_out rst_n start_conversion_in clk_vcm
+ inp_analog inn_analog
+ config_1_in[0] config_1_in[1] config_1_in[2] config_1_in[3] config_1_in[4] config_1_in[5] config_1_in[6] config_1_in[7] config_1_in[8] config_1_in[9]
+ config_1_in[10] config_1_in[11] config_1_in[12] config_1_in[13] config_1_in[14] config_1_in[15] 
+ config_2_in[0] config_2_in[1] config_2_in[2] config_2_in[3] config_2_in[4] config_2_in[5] config_2_in[6] config_2_in[7] config_2_in[8] config_2_in[9] 
+ config_2_in[10] config_2_in[11] config_2_in[12] config_2_in[13] config_2_in[14] config_2_in[15] 
+ dummypin[0] dummypin[10] dummypin[11] dummypin[12] dummypin[13] dummypin[14] dummypin[15] dummypin[1] dummypin[2] dummypin[3] dummypin[4] dummypin[5] 
+ dummypin[6] dummypin[7] dummypin[8] dummypin[9]  
X0 VSS VDD VSS VSS sky130_fd_pr__nfet_01v8 ad=4.54474e+15p pd=2.80061e+10u as=0p ps=0u w=550000u l=2.89e+06u M=254
X1 VDD a_3143_22364# a_4807_27613# VDD sky130_fd_pr__pfet_01v8_hvt ad=2.78423e+15p pd=2.64739e+10u as=1.218e+11p ps=1.42e+06u w=420000u l=150000u
X2 a_26495_37429# a_13669_37429# VDD VDD sky130_fd_pr__pfet_01v8_hvt ad=1.092e+11p pd=1.36e+06u as=0p ps=0u w=420000u l=150000u
X3 a_30722_10862# a_30764_7638# VSS VSS sky130_fd_pr__nfet_01v8 ad=2.688e+11p pd=2.96e+06u as=0p ps=0u w=420000u l=150000u
X4 a_44874_9460# a_42718_27497# VDD VDD sky130_fd_pr__pfet_01v8 ad=2.64e+11p pd=2.26e+06u as=0p ps=0u w=800000u l=150000u
X5 a_32765_31287# a_32970_31145# a_32928_31171# VDD sky130_fd_pr__pfet_01v8_hvt ad=1.092e+11p pd=1.36e+06u as=8.82e+10p ps=1.26e+06u w=420000u l=150000u
X6 a_42466_56170# a_16746_56172# vcm_commonmode VDD sky130_fd_pr__pfet_01v8 ad=2.64e+11p pd=2.26e+06u as=2.957e+14p ps=2.64812e+09u w=800000u l=150000u
X7 a_8364_47919# a_6863_42692# a_8143_48246# VSS sky130_fd_pr__nfet_01v8 ad=1.386e+11p pd=1.5e+06u as=1.995e+11p ps=1.79e+06u w=420000u l=150000u
X8 a_7803_55509# a_8307_66415# VSS VSS sky130_fd_pr__nfet_01v8 ad=1.755e+11p pd=1.84e+06u as=0p ps=0u w=650000u l=150000u M=2
X9 a_27214_28335# a_2787_30503# VSS VSS sky130_fd_pr__nfet_01v8 ad=1.2285e+12p pd=1.288e+07u as=0p ps=0u w=650000u l=150000u M=4
X10 VDD a_7644_46805# a_8126_46287# VDD sky130_fd_pr__pfet_01v8_hvt ad=0p pd=0u as=1.302e+11p ps=1.46e+06u w=420000u l=150000u
X11 VSS VDD VSS VSS sky130_fd_pr__nfet_01v8 ad=0p pd=0u as=0p ps=0u w=550000u l=590000u M=777
X12 a_76346_38962# a_76180_38962# VSS VSS sky130_fd_pr__nfet_01v8 ad=3.51e+11p pd=3.68e+06u as=0p ps=0u w=650000u l=150000u M=4
X13 VSS VDD VSS VSS sky130_fd_pr__nfet_01v8 ad=0p pd=0u as=0p ps=0u w=550000u l=1.05e+06u M=1397
X14 VSS a_2375_49172# a_1895_49722# VSS sky130_fd_pr__nfet_01v8 ad=0p pd=0u as=1.352e+11p ps=1.56e+06u w=520000u l=150000u
X15 a_25398_66210# a_16746_66212# vcm_commonmode VDD sky130_fd_pr__pfet_01v8 ad=2.64e+11p pd=2.26e+06u as=0p ps=0u w=800000u l=150000u
X16 a_17033_38565# a_16879_37999# VSS VSS sky130_fd_pr__nfet_01v8 ad=1.69e+11p pd=1.82e+06u as=0p ps=0u w=650000u l=150000u
X17 a_3173_66169# a_2840_66103# VDD VDD sky130_fd_pr__pfet_01v8_hvt ad=1.176e+11p pd=1.4e+06u as=0p ps=0u w=420000u l=150000u
X18 a_20905_32143# a_3339_30503# VDD VDD sky130_fd_pr__pfet_01v8_hvt ad=2.7e+11p pd=2.54e+06u as=0p ps=0u w=1e+06u l=150000u
X19 a_28703_29423# a_23928_28585# a_28513_29673# VSS sky130_fd_pr__nfet_01v8 ad=2.145e+11p pd=1.96e+06u as=2.145e+11p ps=1.96e+06u w=650000u l=150000u
X20 a_2127_4943# a_1683_5059# VSS VSS sky130_fd_pr__nfet_01v8 ad=1.755e+11p pd=1.84e+06u as=0p ps=0u w=650000u l=150000u
D0 VSS a_11067_67279# sky130_fd_pr__diode_pw2nd_05v5 pj=2.64e+06 area=4.347e+11
X21 VDD VSS VDD VDD sky130_fd_pr__pfet_01v8_hvt ad=0p pd=0u as=0p ps=0u w=870000u l=4.73e+06u M=564
X22 a_43870_23516# a_40491_27247# VDD VDD sky130_fd_pr__pfet_01v8 ad=2.64e+11p pd=2.26e+06u as=0p ps=0u w=800000u l=150000u
X23 a_12161_31599# a_11143_31599# VSS VSS sky130_fd_pr__nfet_01v8 ad=1.755e+11p pd=1.84e+06u as=0p ps=0u w=650000u l=150000u
X24 a_1923_59583# a_2511_60431# VSS VSS sky130_fd_pr__nfet_01v8 ad=3.51e+11p pd=3.68e+06u as=0p ps=0u w=650000u l=150000u M=4
X25 a_40366_20902# a_12985_7663# a_40858_20504# VDD sky130_fd_pr__pfet_01v8 ad=7.44e+11p pd=6.66e+06u as=2.64e+11p ps=2.26e+06u w=800000u l=150000u
X26 a_40366_16886# a_16362_16520# a_40458_16520# VDD sky130_fd_pr__pfet_01v8 ad=7.44e+11p pd=6.66e+06u as=2.64e+11p ps=2.26e+06u w=800000u l=150000u
X27 a_43470_19532# a_16746_19530# vcm_commonmode VDD sky130_fd_pr__pfet_01v8 ad=2.64e+11p pd=2.26e+06u as=0p ps=0u w=800000u l=150000u
X28 VDD a_19807_28111# a_35079_46831# VDD sky130_fd_pr__pfet_01v8_hvt ad=0p pd=0u as=2.65e+11p ps=2.53e+06u w=1e+06u l=150000u
X29 a_20009_48981# a_2606_41079# VSS VSS sky130_fd_pr__nfet_01v8 ad=1.092e+11p pd=1.36e+06u as=0p ps=0u w=420000u l=150000u
X30 VDD a_2787_32679# a_7544_32937# VDD sky130_fd_pr__pfet_01v8_hvt ad=0p pd=0u as=1.386e+11p ps=1.5e+06u w=420000u l=150000u
X31 a_41596_29423# a_15607_46805# a_41335_29423# VSS sky130_fd_pr__nfet_01v8 ad=1.82e+11p pd=1.86e+06u as=3.5425e+11p ps=3.69e+06u w=650000u l=150000u
X32 VDD a_10975_66407# a_46390_65206# VDD sky130_fd_pr__pfet_01v8 ad=0p pd=0u as=7.44e+11p ps=6.66e+06u w=800000u l=150000u
X33 a_5098_41391# a_4960_40847# a_5098_41641# VSS sky130_fd_pr__nfet_01v8 ad=8.775e+11p pd=9.2e+06u as=3.51e+11p ps=3.68e+06u w=650000u l=150000u M=4
X34 a_28714_62194# a_28756_55394# VSS VSS sky130_fd_pr__nfet_01v8 ad=2.688e+11p pd=2.96e+06u as=0p ps=0u w=420000u l=150000u
X35 a_46482_55166# VDD vcm_commonmode VDD sky130_fd_pr__pfet_01v8 ad=2.64e+11p pd=2.26e+06u as=0p ps=0u w=800000u l=150000u
X36 VDD a_11179_9981# a_11140_10107# VDD sky130_fd_pr__pfet_01v8_hvt ad=0p pd=0u as=1.664e+11p ps=1.8e+06u w=640000u l=150000u
X37 VDD VSS VDD VDD sky130_fd_pr__pfet_01v8_hvt ad=0p pd=0u as=0p ps=0u w=870000u l=1.05e+06u M=1397
X38 a_33830_15484# a_32951_27247# VDD VDD sky130_fd_pr__pfet_01v8 ad=2.64e+11p pd=2.26e+06u as=0p ps=0u w=800000u l=150000u
X39 a_33734_21906# a_12985_7663# a_33338_21906# VSS sky130_fd_pr__nfet_01v8 ad=2.688e+11p pd=2.96e+06u as=2.604e+11p ps=2.92e+06u w=420000u l=150000u
X40 a_30326_72234# VSS a_30418_72234# VDD sky130_fd_pr__pfet_01v8 ad=7.44e+11p pd=6.66e+06u as=2.64e+11p ps=2.26e+06u w=800000u l=150000u
X41 VSS a_12727_58255# a_32730_60186# VSS sky130_fd_pr__nfet_01v8 ad=0p pd=0u as=2.688e+11p ps=2.96e+06u w=420000u l=150000u
X42 a_5147_43567# a_4701_43567# a_5051_43567# VSS sky130_fd_pr__nfet_01v8 ad=2.802e+11p pd=2.2e+06u as=1.188e+11p ps=1.38e+06u w=360000u l=150000u
X43 VSS a_11067_67279# a_32730_19898# VSS sky130_fd_pr__nfet_01v8 ad=0p pd=0u as=2.688e+11p ps=2.96e+06u w=420000u l=150000u
X44 a_22690_66210# a_12983_63151# a_22294_66210# VSS sky130_fd_pr__nfet_01v8 ad=2.688e+11p pd=2.96e+06u as=2.604e+11p ps=2.92e+06u w=420000u l=150000u
X45 VDD a_5504_37815# a_5449_37191# VDD sky130_fd_pr__pfet_01v8_hvt ad=0p pd=0u as=2.8e+11p ps=2.56e+06u w=1e+06u l=150000u
X46 a_1761_46287# a_1591_46287# VSS VSS sky130_fd_pr__nfet_01v8 ad=1.352e+11p pd=1.56e+06u as=0p ps=0u w=520000u l=150000u
X47 VDD a_10515_22671# a_36350_57174# VDD sky130_fd_pr__pfet_01v8 ad=0p pd=0u as=7.44e+11p ps=6.66e+06u w=800000u l=150000u
X48 a_10665_58487# a_6417_62215# VSS VSS sky130_fd_pr__nfet_01v8 ad=1.092e+11p pd=1.36e+06u as=0p ps=0u w=420000u l=150000u
X49 VSS VDD VSS VSS sky130_fd_pr__nfet_01v8 ad=0p pd=0u as=0p ps=0u w=550000u l=1.97e+06u M=394
X50 a_46882_14480# a_43175_28335# VDD VDD sky130_fd_pr__pfet_01v8 ad=2.64e+11p pd=2.26e+06u as=0p ps=0u w=800000u l=150000u
X51 a_46786_20902# a_11067_67279# a_46390_20902# VSS sky130_fd_pr__nfet_01v8 ad=2.688e+11p pd=2.96e+06u as=2.604e+11p ps=2.92e+06u w=420000u l=150000u
X52 VDD a_10515_23975# a_20286_23914# VDD sky130_fd_pr__pfet_01v8 ad=0p pd=0u as=7.44e+11p ps=6.66e+06u w=800000u l=150000u
X53 VDD a_12727_67753# a_19282_67214# VDD sky130_fd_pr__pfet_01v8 ad=0p pd=0u as=7.44e+11p ps=6.66e+06u w=800000u l=150000u
X54 a_1644_65845# a_1823_65853# VDD VDD sky130_fd_pr__pfet_01v8_hvt ad=1.664e+11p pd=1.8e+06u as=0p ps=0u w=640000u l=150000u
X55 VDD a_20359_29199# a_30104_31849# VDD sky130_fd_pr__pfet_01v8_hvt ad=0p pd=0u as=6.3e+11p ps=5.26e+06u w=1e+06u l=150000u M=2
X56 a_44382_15882# a_16362_15516# a_44474_15516# VDD sky130_fd_pr__pfet_01v8 ad=7.44e+11p pd=6.66e+06u as=2.64e+11p ps=2.26e+06u w=800000u l=150000u
X57 a_10897_9839# a_10862_10091# a_10659_9813# VSS sky130_fd_pr__nfet_01v8 ad=1.281e+11p pd=1.45e+06u as=1.092e+11p ps=1.36e+06u w=420000u l=150000u
X58 VDD a_12257_56623# a_49402_56170# VDD sky130_fd_pr__pfet_01v8 ad=0p pd=0u as=7.44e+11p ps=6.66e+06u w=800000u l=150000u
X59 a_20286_64202# a_16362_64202# a_20378_64202# VDD sky130_fd_pr__pfet_01v8 ad=7.44e+11p pd=6.66e+06u as=2.64e+11p ps=2.26e+06u w=800000u l=150000u
X60 a_29814_24520# a_29760_7638# VDD VDD sky130_fd_pr__pfet_01v8 ad=2.64e+11p pd=2.26e+06u as=0p ps=0u w=800000u l=150000u
X61 a_41766_69222# a_41427_52263# VSS VSS sky130_fd_pr__nfet_01v8 ad=2.688e+11p pd=2.96e+06u as=0p ps=0u w=420000u l=150000u
X62 VDD a_1586_21959# a_10883_18007# VDD sky130_fd_pr__pfet_01v8_hvt ad=0p pd=0u as=1.664e+11p ps=1.8e+06u w=640000u l=150000u
X63 a_19374_57174# a_16746_57176# vcm_commonmode VDD sky130_fd_pr__pfet_01v8 ad=2.64e+11p pd=2.26e+06u as=0p ps=0u w=800000u l=150000u
X64 a_28361_51701# a_28143_52105# VDD VDD sky130_fd_pr__pfet_01v8_hvt ad=2.583e+11p pd=2.37e+06u as=0p ps=0u w=840000u l=150000u
X65 VDD VSS VDD VDD sky130_fd_pr__pfet_01v8_hvt ad=0p pd=0u as=0p ps=0u w=870000u l=590000u M=777
X66 a_36746_12870# a_10055_58791# a_36350_12870# VSS sky130_fd_pr__nfet_01v8 ad=2.688e+11p pd=2.96e+06u as=2.604e+11p ps=2.92e+06u w=420000u l=150000u
X67 VDD a_33264_37601# a_33668_38341# VSS sky130_fd_pr__nfet_01v8 ad=8.3123e+14p pd=8.36296e+09u as=3.99e+11p ps=4.42e+06u w=420000u l=150000u M=2
X68 a_34342_11866# a_10055_58791# a_34834_11468# VDD sky130_fd_pr__pfet_01v8 ad=7.44e+11p pd=6.66e+06u as=2.64e+11p ps=2.26e+06u w=800000u l=150000u
X69 a_33484_41605# a_32611_41317# VSS VSS sky130_fd_pr__nfet_01v8 ad=3.99e+11p pd=4.42e+06u as=0p ps=0u w=420000u l=150000u
X70 a_19678_64202# a_19720_55394# VSS VSS sky130_fd_pr__nfet_01v8 ad=2.688e+11p pd=2.96e+06u as=0p ps=0u w=420000u l=150000u
X71 a_2319_54684# a_2163_54589# a_2464_54813# VDD sky130_fd_pr__pfet_01v8_hvt ad=1.449e+11p pd=1.53e+06u as=3.402e+11p ps=3.3e+06u w=420000u l=150000u
X72 VSS a_14926_31849# a_17554_30663# VSS sky130_fd_pr__nfet_01v8 ad=0p pd=0u as=5.46e+11p ps=5.58e+06u w=650000u l=150000u M=2
X73 a_31184_36165# a_31280_36165# VDD VSS sky130_fd_pr__nfet_01v8 ad=3.99e+11p pd=4.42e+06u as=0p ps=0u w=420000u l=150000u M=2
X74 vcm_commonmode a_16362_23548# a_43470_23548# VSS sky130_fd_pr__nfet_01v8 ad=1.55518e+14p pd=1.74372e+09u as=1.386e+11p ps=1.5e+06u w=420000u l=150000u
X75 a_19678_22910# a_11067_21583# a_19282_22910# VSS sky130_fd_pr__nfet_01v8 ad=2.688e+11p pd=2.96e+06u as=2.604e+11p ps=2.92e+06u w=420000u l=150000u
X76 VDD a_16824_28309# a_15799_29941# VDD sky130_fd_pr__pfet_01v8_hvt ad=0p pd=0u as=2.65e+11p ps=2.53e+06u w=1e+06u l=150000u
X77 a_17274_21906# a_11067_21583# a_17766_21508# VDD sky130_fd_pr__pfet_01v8 ad=7.44e+11p pd=6.66e+06u as=2.64e+11p ps=2.26e+06u w=800000u l=150000u
X78 a_23774_49551# a_23830_49525# VDD VDD sky130_fd_pr__pfet_01v8_hvt ad=1.35e+12p pd=1.27e+07u as=0p ps=0u w=1e+06u l=150000u M=4
X79 a_17274_17890# a_16362_17524# a_17366_17524# VDD sky130_fd_pr__pfet_01v8 ad=7.44e+11p pd=6.66e+06u as=2.64e+11p ps=2.26e+06u w=800000u l=150000u
X80 a_21290_70226# a_12516_7093# a_21782_70548# VDD sky130_fd_pr__pfet_01v8 ad=7.44e+11p pd=6.66e+06u as=2.64e+11p ps=2.26e+06u w=800000u l=150000u
X81 VDD a_12727_15529# a_23298_14878# VDD sky130_fd_pr__pfet_01v8 ad=0p pd=0u as=7.44e+11p ps=6.66e+06u w=800000u l=150000u
X82 a_47394_10862# a_12985_16367# a_47886_10464# VDD sky130_fd_pr__pfet_01v8 ad=7.44e+11p pd=6.66e+06u as=2.64e+11p ps=2.26e+06u w=800000u l=150000u
X83 a_21382_15516# a_16746_15514# vcm_commonmode VDD sky130_fd_pr__pfet_01v8 ad=2.64e+11p pd=2.26e+06u as=0p ps=0u w=800000u l=150000u
X84 VDD a_11067_47695# a_12899_3855# VDD sky130_fd_pr__pfet_01v8_hvt ad=0p pd=0u as=2.7e+11p ps=2.54e+06u w=1e+06u l=150000u M=2
X85 a_28318_9858# a_16362_9492# a_28410_9492# VDD sky130_fd_pr__pfet_01v8 ad=7.44e+11p pd=6.66e+06u as=2.64e+11p ps=2.26e+06u w=800000u l=150000u
X86 VDD a_38077_29941# a_31084_30485# VDD sky130_fd_pr__pfet_01v8_hvt ad=0p pd=0u as=2.6e+11p ps=2.52e+06u w=1e+06u l=150000u
X87 a_24302_63198# a_16362_63198# a_24394_63198# VDD sky130_fd_pr__pfet_01v8 ad=7.44e+11p pd=6.66e+06u as=2.64e+11p ps=2.26e+06u w=800000u l=150000u
X88 a_45782_68218# a_40050_48463# VSS VSS sky130_fd_pr__nfet_01v8 ad=2.688e+11p pd=2.96e+06u as=0p ps=0u w=420000u l=150000u
X89 a_36442_18528# a_16746_18526# a_36350_18894# VSS sky130_fd_pr__nfet_01v8 ad=1.386e+11p pd=1.5e+06u as=2.604e+11p ps=2.92e+06u w=420000u l=150000u
X90 VSS a_24331_38591# VSS VSS sky130_fd_pr__nfet_01v8 ad=0p pd=0u as=0p ps=0u w=1.375e+06u l=2.25e+06u
X91 a_3949_41935# a_3491_42239# VSS VSS sky130_fd_pr__nfet_01v8 ad=3.51e+11p pd=3.68e+06u as=0p ps=0u w=650000u l=150000u M=4
X92 a_2672_45577# a_1757_45205# a_2325_45173# VSS sky130_fd_pr__nfet_01v8 ad=1.422e+11p pd=1.51e+06u as=1.998e+11p ps=1.97e+06u w=360000u l=150000u
X93 a_31330_11866# a_16362_11500# a_31422_11500# VDD sky130_fd_pr__pfet_01v8 ad=7.44e+11p pd=6.66e+06u as=2.64e+11p ps=2.26e+06u w=800000u l=150000u
X94 VDD a_5915_35943# a_8397_35407# VDD sky130_fd_pr__pfet_01v8_hvt ad=0p pd=0u as=6.5e+11p ps=5.3e+06u w=1e+06u l=150000u
X95 a_3998_15823# a_3911_16065# a_3594_15955# VDD sky130_fd_pr__pfet_01v8_hvt ad=2.583e+11p pd=2.37e+06u as=1.176e+11p ps=1.4e+06u w=420000u l=150000u
X96 a_49494_17524# a_16746_17522# a_49402_17890# VSS sky130_fd_pr__nfet_01v8 ad=1.386e+11p pd=1.5e+06u as=2.604e+11p ps=2.92e+06u w=420000u l=150000u
X97 a_20378_23548# a_16746_23546# a_20286_23914# VSS sky130_fd_pr__nfet_01v8 ad=1.386e+11p pd=1.5e+06u as=2.604e+11p ps=2.92e+06u w=420000u l=150000u
X98 VDD a_32367_28309# a_28756_7638# VDD sky130_fd_pr__pfet_01v8_hvt ad=0p pd=0u as=3.48e+11p ps=2.78e+06u w=700000u l=150000u
X99 VSS a_7519_59575# a_7299_59663# VSS sky130_fd_pr__nfet_01v8 ad=0p pd=0u as=5.655e+11p ps=5.64e+06u w=650000u l=150000u
X100 VDD a_12877_16911# a_27314_13874# VDD sky130_fd_pr__pfet_01v8 ad=0p pd=0u as=7.44e+11p ps=6.66e+06u w=800000u l=150000u
X101 a_24794_10464# a_24740_7638# VDD VDD sky130_fd_pr__pfet_01v8 ad=2.64e+11p pd=2.26e+06u as=0p ps=0u w=800000u l=150000u
X102 a_28152_40517# a_27183_40229# a_28056_40517# VSS sky130_fd_pr__nfet_01v8 ad=1.218e+11p pd=1.42e+06u as=3.99e+11p ps=4.42e+06u w=420000u l=150000u
X103 a_9405_56623# a_5254_67503# VSS VSS sky130_fd_pr__nfet_01v8 ad=3.705e+11p pd=3.74e+06u as=0p ps=0u w=650000u l=150000u
X104 VDD a_7862_34025# a_27139_31849# VDD sky130_fd_pr__pfet_01v8_hvt ad=0p pd=0u as=1.386e+11p ps=1.5e+06u w=420000u l=150000u
X105 a_39799_38825# a_38867_38591# VDD VDD sky130_fd_pr__pfet_01v8 ad=7.52e+11p pd=6.68e+06u as=0p ps=0u w=800000u l=150000u
X106 a_6094_67825# a_6156_67477# a_6093_67503# VSS sky130_fd_pr__nfet_01v8 ad=1.092e+11p pd=1.36e+06u as=1.323e+11p ps=1.47e+06u w=420000u l=150000u
X107 a_48794_59182# a_42985_46831# VSS VSS sky130_fd_pr__nfet_01v8 ad=2.688e+11p pd=2.96e+06u as=0p ps=0u w=420000u l=150000u
X108 VSS VDD VSS VSS sky130_fd_pr__nfet_01v8 ad=0p pd=0u as=0p ps=0u w=550000u l=4.73e+06u M=564
X109 VSS a_12727_67753# a_22690_68218# VSS sky130_fd_pr__nfet_01v8 ad=0p pd=0u as=2.688e+11p ps=2.96e+06u w=420000u l=150000u
X110 a_42374_61190# a_12981_59343# a_42866_61512# VDD sky130_fd_pr__pfet_01v8 ad=7.44e+11p pd=6.66e+06u as=2.64e+11p ps=2.26e+06u w=800000u l=150000u
X111 a_35765_29967# a_32970_31145# VDD VDD sky130_fd_pr__pfet_01v8_hvt ad=2.7e+11p pd=2.54e+06u as=0p ps=0u w=1e+06u l=150000u
X112 vcm_commonmode a_16362_14512# a_37446_14512# VSS sky130_fd_pr__nfet_01v8 ad=0p pd=0u as=1.386e+11p ps=1.5e+06u w=420000u l=150000u
X113 a_46390_16886# a_12899_11471# a_46882_16488# VDD sky130_fd_pr__pfet_01v8 ad=7.44e+11p pd=6.66e+06u as=2.64e+11p ps=2.26e+06u w=800000u l=150000u
X114 VSS a_2223_28617# a_2981_27023# VSS sky130_fd_pr__nfet_01v8 ad=0p pd=0u as=1.365e+11p ps=1.72e+06u w=650000u l=150000u
X115 a_7005_55223# a_7210_55081# a_7168_55107# VDD sky130_fd_pr__pfet_01v8_hvt ad=1.092e+11p pd=1.36e+06u as=8.82e+10p ps=1.26e+06u w=420000u l=150000u
X116 a_7377_18012# a_12139_18517# VSS VSS sky130_fd_pr__nfet_01v8 ad=3.51e+11p pd=3.68e+06u as=0p ps=0u w=650000u l=150000u M=4
X117 a_39362_7850# VDD a_39854_7452# VDD sky130_fd_pr__pfet_01v8 ad=7.44e+11p pd=6.66e+06u as=2.64e+11p ps=2.26e+06u w=800000u l=150000u
X118 VDD a_4891_47388# a_22921_52245# VDD sky130_fd_pr__pfet_01v8_hvt ad=0p pd=0u as=8.25e+11p ps=7.65e+06u w=1e+06u l=150000u M=2
X119 VSS a_15253_37692# a_14945_37479# VSS sky130_fd_pr__nfet_01v8 ad=0p pd=0u as=3.99e+11p ps=4.42e+06u w=420000u l=150000u
X120 a_5546_12675# a_1929_12131# VDD VDD sky130_fd_pr__pfet_01v8_hvt ad=1.281e+11p pd=1.45e+06u as=0p ps=0u w=420000u l=150000u
X121 a_37446_70226# a_16746_70228# vcm_commonmode VDD sky130_fd_pr__pfet_01v8 ad=2.64e+11p pd=2.26e+06u as=0p ps=0u w=800000u l=150000u
X122 a_11304_18543# a_10961_19087# VDD VDD sky130_fd_pr__pfet_01v8_hvt ad=1.302e+11p pd=1.46e+06u as=0p ps=0u w=420000u l=150000u
X123 a_10391_49855# a_2419_48783# VDD VDD sky130_fd_pr__pfet_01v8_hvt ad=1.134e+11p pd=1.38e+06u as=0p ps=0u w=420000u l=150000u
X124 a_18770_66532# a_14287_51175# VDD VDD sky130_fd_pr__pfet_01v8 ad=2.64e+11p pd=2.26e+06u as=0p ps=0u w=800000u l=150000u
X125 a_49894_7452# VDD VDD VDD sky130_fd_pr__pfet_01v8 ad=2.64e+11p pd=2.26e+06u as=0p ps=0u w=800000u l=150000u
X126 a_45782_7850# a_43270_27791# VSS VSS sky130_fd_pr__nfet_01v8 ad=2.688e+11p pd=2.96e+06u as=0p ps=0u w=420000u l=150000u
X127 VSS a_12901_58799# a_25702_59182# VSS sky130_fd_pr__nfet_01v8 ad=0p pd=0u as=2.688e+11p ps=2.96e+06u w=420000u l=150000u
X128 a_24987_36649# a_24055_36415# VDD VDD sky130_fd_pr__pfet_01v8 ad=7.52e+11p pd=6.68e+06u as=0p ps=0u w=800000u l=150000u
X129 VDD a_12355_65103# a_22294_64202# VDD sky130_fd_pr__pfet_01v8 ad=0p pd=0u as=7.44e+11p ps=6.66e+06u w=800000u l=150000u
X130 a_3301_27791# a_2899_28111# a_3137_28111# VSS sky130_fd_pr__nfet_01v8 ad=1.95e+11p pd=1.9e+06u as=3.445e+11p ps=3.66e+06u w=650000u l=150000u
X131 a_26137_29423# a_26063_30511# VSS VSS sky130_fd_pr__nfet_01v8 ad=1.134e+11p pd=1.38e+06u as=0p ps=0u w=420000u l=150000u
X132 a_12907_27023# a_40599_47919# VDD VDD sky130_fd_pr__pfet_01v8_hvt ad=5.4e+11p pd=5.08e+06u as=0p ps=0u w=1e+06u l=150000u M=4
X133 a_7479_54439# a_23774_49551# VDD VDD sky130_fd_pr__pfet_01v8_hvt ad=1.37e+12p pd=1.274e+07u as=0p ps=0u w=1e+06u l=150000u M=4
X134 VSS a_1923_59583# a_2369_66415# VSS sky130_fd_pr__nfet_01v8 ad=0p pd=0u as=8.82e+10p ps=1.26e+06u w=420000u l=150000u
X135 VSS a_7815_49855# a_7749_49929# VSS sky130_fd_pr__nfet_01v8 ad=0p pd=0u as=1.338e+11p ps=1.5e+06u w=420000u l=150000u
X136 VDD a_1586_66567# a_10975_65327# VDD sky130_fd_pr__pfet_01v8_hvt ad=0p pd=0u as=1.664e+11p ps=1.8e+06u w=640000u l=150000u
X137 a_41370_67214# a_12983_63151# a_41862_67536# VDD sky130_fd_pr__pfet_01v8 ad=7.44e+11p pd=6.66e+06u as=2.64e+11p ps=2.26e+06u w=800000u l=150000u
X138 a_27406_13508# a_16746_13506# a_27314_13874# VSS sky130_fd_pr__nfet_01v8 ad=1.386e+11p pd=1.5e+06u as=2.604e+11p ps=2.92e+06u w=420000u l=150000u
X139 a_13173_29673# a_13390_29575# VDD VDD sky130_fd_pr__pfet_01v8_hvt ad=6.55e+11p pd=5.31e+06u as=0p ps=0u w=1e+06u l=150000u
X140 VSS a_3452_70537# a_3410_70589# VSS sky130_fd_pr__nfet_01v8 ad=0p pd=0u as=8.82e+10p ps=1.26e+06u w=420000u l=150000u
X141 a_7289_70767# a_5877_70197# a_7651_71017# VDD sky130_fd_pr__pfet_01v8_hvt ad=2.7e+11p pd=2.54e+06u as=8.1e+11p ps=7.62e+06u w=1e+06u l=150000u M=2
X142 a_6913_72399# a_6559_72512# VSS VSS sky130_fd_pr__nfet_01v8 ad=1.69e+11p pd=1.82e+06u as=0p ps=0u w=650000u l=150000u
X143 a_19282_62194# a_12355_15055# a_19774_62516# VDD sky130_fd_pr__pfet_01v8 ad=7.44e+11p pd=6.66e+06u as=2.64e+11p ps=2.26e+06u w=800000u l=150000u
X144 a_26112_30663# a_14926_31849# a_26343_30761# VDD sky130_fd_pr__pfet_01v8_hvt ad=1.092e+11p pd=1.36e+06u as=8.82e+10p ps=1.26e+06u w=420000u l=150000u
X145 a_6599_40630# a_6417_40630# VDD VDD sky130_fd_pr__pfet_01v8_hvt ad=8.82e+10p pd=1.26e+06u as=0p ps=0u w=420000u l=150000u
X146 VSS a_10515_22671# a_29718_58178# VSS sky130_fd_pr__nfet_01v8 ad=0p pd=0u as=2.688e+11p ps=2.96e+06u w=420000u l=150000u
X147 a_23790_60508# a_18611_52047# VDD VDD sky130_fd_pr__pfet_01v8 ad=2.64e+11p pd=2.26e+06u as=0p ps=0u w=800000u l=150000u
X148 a_26706_55166# a_21371_52263# VSS VSS sky130_fd_pr__nfet_01v8 ad=2.688e+11p pd=2.96e+06u as=0p ps=0u w=420000u l=150000u
X149 a_39454_66210# a_16746_66212# a_39362_66210# VSS sky130_fd_pr__nfet_01v8 ad=1.386e+11p pd=1.5e+06u as=2.604e+11p ps=2.92e+06u w=420000u l=150000u
X150 a_4429_14191# a_4075_14191# VSS VSS sky130_fd_pr__nfet_01v8 ad=1.69e+11p pd=1.82e+06u as=0p ps=0u w=650000u l=150000u
X151 VDD a_4482_57863# a_32785_50639# VDD sky130_fd_pr__pfet_01v8_hvt ad=0p pd=0u as=2.1e+11p ps=2.42e+06u w=1e+06u l=150000u
X152 a_31422_68218# a_16746_68220# vcm_commonmode VDD sky130_fd_pr__pfet_01v8 ad=2.64e+11p pd=2.26e+06u as=0p ps=0u w=800000u l=150000u
X153 a_2647_31421# a_2473_34293# a_2284_31287# VSS sky130_fd_pr__nfet_01v8 ad=1.386e+11p pd=1.5e+06u as=1.995e+11p ps=1.79e+06u w=420000u l=150000u
X154 VSS vcm_commonmode VSS VSS sky130_fd_pr__nfet_01v8 ad=0p pd=0u as=0p ps=0u w=1.64e+07u l=1.6e+07u M=80
X155 a_41766_22910# a_40675_27791# VSS VSS sky130_fd_pr__nfet_01v8 ad=2.688e+11p pd=2.96e+06u as=0p ps=0u w=420000u l=150000u
X156 a_16746_56172# a_11803_55311# VSS VSS sky130_fd_pr__nfet_01v8 ad=1.386e+11p pd=1.5e+06u as=0p ps=0u w=420000u l=150000u M=2
X157 a_38358_21906# a_16362_21540# a_38450_21540# VDD sky130_fd_pr__pfet_01v8 ad=7.44e+11p pd=6.66e+06u as=2.64e+11p ps=2.26e+06u w=800000u l=150000u
X158 VSS a_14926_31849# a_25145_30083# VSS sky130_fd_pr__nfet_01v8 ad=0p pd=0u as=2.226e+11p ps=2.74e+06u w=420000u l=150000u
X159 a_37951_42089# a_38011_42035# VSS VDD sky130_fd_pr__pfet_01v8 ad=7.52e+11p pd=6.68e+06u as=2.57899e+15p ps=1.51821e+10u w=800000u l=150000u M=2
X160 a_33641_29967# a_33363_30305# VSS VSS sky130_fd_pr__nfet_01v8 ad=1.82e+11p pd=1.86e+06u as=0p ps=0u w=650000u l=150000u
X161 a_37750_61190# a_12355_15055# a_37354_61190# VSS sky130_fd_pr__nfet_01v8 ad=2.688e+11p pd=2.96e+06u as=2.604e+11p ps=2.92e+06u w=420000u l=150000u
X162 a_4831_58497# a_3295_54421# VDD VDD sky130_fd_pr__pfet_01v8_hvt ad=1.664e+11p pd=1.8e+06u as=0p ps=0u w=640000u l=150000u
X163 a_32730_7850# VDD a_32334_7850# VSS sky130_fd_pr__nfet_01v8 ad=2.688e+11p pd=2.96e+06u as=2.604e+11p ps=2.92e+06u w=420000u l=150000u
X164 VSS a_12899_10927# a_34738_17890# VSS sky130_fd_pr__nfet_01v8 ad=0p pd=0u as=2.688e+11p ps=2.96e+06u w=420000u l=150000u
X165 VDD a_4427_25071# a_5918_27497# VDD sky130_fd_pr__pfet_01v8_hvt ad=0p pd=0u as=2.25e+11p ps=2.45e+06u w=1e+06u l=150000u
D1 VSS a_2012_33927# sky130_fd_pr__diode_pw2nd_05v5 pj=2.64e+06 area=4.347e+11
X166 a_7640_42479# a_6559_42479# a_7293_42721# VDD sky130_fd_pr__pfet_01v8_hvt ad=1.176e+11p pd=1.4e+06u as=2.583e+11p ps=2.37e+06u w=420000u l=150000u
X167 vcm_commonmode VSS a_44474_72234# VSS sky130_fd_pr__nfet_01v8 ad=0p pd=0u as=1.386e+11p ps=1.5e+06u w=420000u l=150000u
X168 a_7215_36201# a_7019_35951# a_5490_41365# VDD sky130_fd_pr__pfet_01v8_hvt ad=1.96e+12p pd=1.792e+07u as=5.6e+11p ps=5.12e+06u w=1e+06u l=150000u M=4
X169 VSS a_5490_41365# a_5098_41391# VSS sky130_fd_pr__nfet_01v8 ad=0p pd=0u as=0p ps=0u w=650000u l=150000u M=4
X170 a_31330_56170# a_16362_56170# a_31422_56170# VDD sky130_fd_pr__pfet_01v8 ad=7.44e+11p pd=6.66e+06u as=2.64e+11p ps=2.26e+06u w=800000u l=150000u
X171 a_2461_33597# a_2417_33205# a_2295_33609# VSS sky130_fd_pr__nfet_01v8 ad=8.82e+10p pd=1.26e+06u as=2.802e+11p ps=2.2e+06u w=420000u l=150000u
X172 a_45782_21906# a_43270_27791# VSS VSS sky130_fd_pr__nfet_01v8 ad=2.688e+11p pd=2.96e+06u as=0p ps=0u w=420000u l=150000u
X173 a_6559_59663# a_26662_48981# a_26610_49257# VDD sky130_fd_pr__pfet_01v8_hvt ad=1.37e+12p pd=1.274e+07u as=1.33e+12p ps=1.266e+07u w=1e+06u l=150000u M=4
X174 VSS VDD VSS VSS sky130_fd_pr__nfet_01v8 ad=0p pd=0u as=0p ps=0u w=1.64e+07u l=1.6e+07u M=33
X175 a_7281_29423# a_6743_29673# VDD VDD sky130_fd_pr__pfet_01v8_hvt ad=2.6e+11p pd=2.52e+06u as=0p ps=0u w=1e+06u l=150000u
X176 a_51330_39932# a_49876_41198# a_51422_39932# VDD sky130_fd_pr__pfet_01v8 ad=1.24e+12p pd=9.24e+06u as=1.32e+12p ps=9.32e+06u w=2e+06u l=150000u M=2
X177 a_48398_57174# a_12257_56623# a_48890_57496# VDD sky130_fd_pr__pfet_01v8 ad=7.44e+11p pd=6.66e+06u as=2.64e+11p ps=2.26e+06u w=800000u l=150000u
X178 a_12901_52521# a_12202_54599# a_12818_52521# VDD sky130_fd_pr__pfet_01v8_hvt ad=5.45e+11p pd=5.09e+06u as=2.65e+11p ps=2.53e+06u w=1e+06u l=150000u
X179 a_32334_23914# a_12947_23413# a_32826_23516# VDD sky130_fd_pr__pfet_01v8 ad=7.44e+11p pd=6.66e+06u as=2.64e+11p ps=2.26e+06u w=800000u l=150000u
X180 VSS a_4674_40277# a_5831_39189# VSS sky130_fd_pr__nfet_01v8 ad=0p pd=0u as=1.755e+11p ps=1.84e+06u w=650000u l=150000u M=2
X181 VSS a_1952_60431# a_4600_62069# VSS sky130_fd_pr__nfet_01v8 ad=0p pd=0u as=1.071e+11p ps=1.35e+06u w=420000u l=150000u
X182 a_32334_19898# a_16362_19532# a_32426_19532# VDD sky130_fd_pr__pfet_01v8 ad=7.44e+11p pd=6.66e+06u as=2.64e+11p ps=2.26e+06u w=800000u l=150000u
X183 a_32029_38565# a_32611_39141# a_33484_39429# VSS sky130_fd_pr__nfet_01v8 ad=1.218e+11p pd=1.42e+06u as=3.99e+11p ps=4.42e+06u w=420000u l=150000u
X184 VSS a_12899_11471# a_38754_16886# VSS sky130_fd_pr__nfet_01v8 ad=0p pd=0u as=2.688e+11p ps=2.96e+06u w=420000u l=150000u
X185 a_35742_13874# a_35601_27497# VSS VSS sky130_fd_pr__nfet_01v8 ad=2.688e+11p pd=2.96e+06u as=0p ps=0u w=420000u l=150000u
X186 a_16746_21538# a_16510_8760# VSS VSS sky130_fd_pr__nfet_01v8 ad=1.386e+11p pd=1.5e+06u as=0p ps=0u w=420000u l=150000u M=2
X187 a_2834_18909# a_1757_18543# a_2672_18543# VDD sky130_fd_pr__pfet_01v8_hvt ad=1.134e+11p pd=1.38e+06u as=1.176e+11p ps=1.4e+06u w=420000u l=150000u
X188 a_2215_19997# a_2411_19605# VDD VDD sky130_fd_pr__pfet_01v8_hvt ad=3.402e+11p pd=3.3e+06u as=0p ps=0u w=420000u l=150000u
X189 a_2672_45577# a_1591_45205# a_2325_45173# VDD sky130_fd_pr__pfet_01v8_hvt ad=1.176e+11p pd=1.4e+06u as=2.583e+11p ps=2.37e+06u w=420000u l=150000u
X190 a_21382_72234# VDD a_21290_72234# VSS sky130_fd_pr__nfet_01v8 ad=1.386e+11p pd=1.5e+06u as=2.604e+11p ps=2.92e+06u w=420000u l=150000u
X191 a_42770_14878# a_12727_15529# a_42374_14878# VSS sky130_fd_pr__nfet_01v8 ad=2.688e+11p pd=2.96e+06u as=2.604e+11p ps=2.92e+06u w=420000u l=150000u
X192 a_36442_10496# a_16746_10494# vcm_commonmode VDD sky130_fd_pr__pfet_01v8 ad=2.64e+11p pd=2.26e+06u as=0p ps=0u w=800000u l=150000u
X193 a_23694_9858# a_12985_19087# a_23298_9858# VSS sky130_fd_pr__nfet_01v8 ad=2.688e+11p pd=2.96e+06u as=2.604e+11p ps=2.92e+06u w=420000u l=150000u
X194 VSS a_12801_38517# a_24382_41629# VSS sky130_fd_pr__nfet_01v8 ad=0p pd=0u as=1.092e+11p ps=1.36e+06u w=420000u l=150000u
X195 a_18674_23914# a_8491_27023# VSS VSS sky130_fd_pr__nfet_01v8 ad=2.688e+11p pd=2.96e+06u as=0p ps=0u w=420000u l=150000u
X196 a_11067_21583# a_12516_7093# VDD VDD sky130_fd_pr__pfet_01v8_hvt ad=8.4e+11p pd=7.68e+06u as=0p ps=0u w=1e+06u l=150000u M=6
X197 vcm_commonmode VSS a_47486_7484# VSS sky130_fd_pr__nfet_01v8 ad=0p pd=0u as=1.386e+11p ps=1.5e+06u w=420000u l=150000u
X198 a_3280_70501# a_1586_69367# VSS VSS sky130_fd_pr__nfet_01v8 ad=1.092e+11p pd=1.36e+06u as=0p ps=0u w=420000u l=150000u
X199 a_22294_15882# a_12727_13353# a_22786_15484# VDD sky130_fd_pr__pfet_01v8 ad=7.44e+11p pd=6.66e+06u as=2.64e+11p ps=2.26e+06u w=800000u l=150000u
X200 a_48794_12870# a_42709_29199# VSS VSS sky130_fd_pr__nfet_01v8 ad=2.688e+11p pd=2.96e+06u as=0p ps=0u w=420000u l=150000u
X201 VSS a_11067_21583# a_22690_21906# VSS sky130_fd_pr__nfet_01v8 ad=0p pd=0u as=2.688e+11p ps=2.96e+06u w=420000u l=150000u
X202 a_25702_24918# VSS a_25306_24918# VSS sky130_fd_pr__nfet_01v8 ad=2.688e+11p pd=2.96e+06u as=2.604e+11p ps=2.92e+06u w=420000u l=150000u
X203 a_19374_20536# a_16746_20534# vcm_commonmode VDD sky130_fd_pr__pfet_01v8 ad=2.64e+11p pd=2.26e+06u as=0p ps=0u w=800000u l=150000u
X204 VSS a_1824_61127# a_1775_60663# VSS sky130_fd_pr__nfet_01v8 ad=0p pd=0u as=1.82e+11p ps=1.86e+06u w=650000u l=150000u
X205 a_4238_55123# a_4555_55233# a_4513_55357# VSS sky130_fd_pr__nfet_01v8 ad=1.422e+11p pd=1.51e+06u as=1.338e+11p ps=1.5e+06u w=360000u l=150000u
X206 a_15660_49257# a_10515_63143# a_15566_49257# VDD sky130_fd_pr__pfet_01v8_hvt ad=2.8e+11p pd=2.56e+06u as=3.2e+11p ps=2.64e+06u w=1e+06u l=150000u
X207 a_25798_57496# a_21371_50959# VDD VDD sky130_fd_pr__pfet_01v8 ad=2.64e+11p pd=2.26e+06u as=0p ps=0u w=800000u l=150000u
X208 a_15221_39631# a_14951_39997# a_15131_39997# VSS sky130_fd_pr__nfet_01v8 ad=1.008e+11p pd=1.32e+06u as=1.092e+11p ps=1.36e+06u w=420000u l=150000u
X209 a_33689_29423# a_30788_28487# a_33008_28853# VSS sky130_fd_pr__nfet_01v8 ad=3.445e+11p pd=3.66e+06u as=1.69e+11p ps=1.82e+06u w=650000u l=150000u
X210 a_11433_69921# a_11215_69679# VDD VDD sky130_fd_pr__pfet_01v8_hvt ad=2.583e+11p pd=2.37e+06u as=0p ps=0u w=840000u l=150000u
X211 VDD VSS VDD VDD sky130_fd_pr__pfet_01v8_hvt ad=0p pd=0u as=0p ps=0u w=870000u l=1.97e+06u M=394
X212 a_34434_7484# VDD vcm_commonmode VDD sky130_fd_pr__pfet_01v8 ad=2.64e+11p pd=2.26e+06u as=0p ps=0u w=800000u l=150000u
X213 a_39362_59182# a_12901_58799# a_39854_59504# VDD sky130_fd_pr__pfet_01v8 ad=7.44e+11p pd=6.66e+06u as=2.64e+11p ps=2.26e+06u w=800000u l=150000u
X214 a_5710_12675# a_4429_14191# a_5637_12675# VDD sky130_fd_pr__pfet_01v8_hvt ad=1.365e+11p pd=1.49e+06u as=9.03e+10p ps=1.27e+06u w=420000u l=150000u
D2 VSS a_5363_30503# sky130_fd_pr__diode_pw2nd_05v5 pj=2.64e+06 area=4.347e+11