* XSpice netlist created from SPICE and liberty sources by spi2xspice.py
* NGSPICE file created from adc_core_digital.ext - technology: sky130A
.subckt adc_core_digital a_VPWR a_VGND a_clk_dig_in a_comparator_in a_config_1_in_0_ a_config_1_in_1_ a_config_1_in_2_ a_config_1_in_3_ a_config_1_in_4_ a_config_1_in_5_ a_config_1_in_6_ a_config_1_in_7_ a_config_1_in_8_ a_config_1_in_9_ a_config_1_in_10_ a_config_1_in_11_ a_config_1_in_12_ a_config_1_in_13_ a_config_1_in_14_ a_config_1_in_15_ a_config_2_in_0_ a_config_2_in_1_ a_config_2_in_2_ a_config_2_in_3_ a_config_2_in_4_ a_config_2_in_5_ a_config_2_in_6_ a_config_2_in_7_ a_config_2_in_8_ a_config_2_in_9_ a_config_2_in_10_ a_config_2_in_11_ a_config_2_in_12_ a_config_2_in_13_ a_config_2_in_14_ a_config_2_in_15_ a_conv_finished_out a_enable_loop_out a_nmatrix_bincap_out_n_0_ a_nmatrix_bincap_out_n_1_ a_nmatrix_bincap_out_n_2_ a_nmatrix_c0_out_n a_nmatrix_col_out_n_0_ a_nmatrix_col_out_n_1_ a_nmatrix_col_out_n_2_ a_nmatrix_col_out_n_3_ a_nmatrix_col_out_n_4_ a_nmatrix_col_out_n_5_ a_nmatrix_col_out_n_6_ a_nmatrix_col_out_n_7_ a_nmatrix_col_out_n_8_ a_nmatrix_col_out_n_9_ a_nmatrix_col_out_n_10_ a_nmatrix_col_out_n_11_ a_nmatrix_col_out_n_12_ a_nmatrix_col_out_n_13_ a_nmatrix_col_out_n_14_ a_nmatrix_col_out_n_15_ a_nmatrix_col_out_n_16_ a_nmatrix_col_out_n_17_ a_nmatrix_col_out_n_18_ a_nmatrix_col_out_n_19_  a_nmatrix_col_out_n_20_ a_nmatrix_col_out_n_21_ a_nmatrix_col_out_n_22_ a_nmatrix_col_out_n_23_ a_nmatrix_col_out_n_24_ a_nmatrix_col_out_n_25_ a_nmatrix_col_out_n_26_ a_nmatrix_col_out_n_27_ a_nmatrix_col_out_n_28_ a_nmatrix_col_out_n_29_  a_nmatrix_col_out_n_30_ a_nmatrix_col_out_n_31_ a_nmatrix_row_out_n_0_ a_nmatrix_row_out_n_1_ a_nmatrix_row_out_n_2_ a_nmatrix_row_out_n_3_ a_nmatrix_row_out_n_4_ a_nmatrix_row_out_n_5_ a_nmatrix_row_out_n_6_ a_nmatrix_row_out_n_7_ a_nmatrix_row_out_n_8_ a_nmatrix_row_out_n_9_  a_nmatrix_row_out_n_10_ a_nmatrix_row_out_n_11_ a_nmatrix_row_out_n_12_ a_nmatrix_row_out_n_13_ a_nmatrix_row_out_n_14_ a_nmatrix_row_out_n_15_ a_nmatrix_rowon_out_n_0_ a_nmatrix_rowon_out_n_1_ a_nmatrix_rowon_out_n_2_ a_nmatrix_rowon_out_n_3_ a_nmatrix_rowon_out_n_4_ a_nmatrix_rowon_out_n_5_ a_nmatrix_rowon_out_n_6_ a_nmatrix_rowon_out_n_7_ a_nmatrix_rowon_out_n_8_ a_nmatrix_rowon_out_n_9_ a_nmatrix_rowon_out_n_10_ a_nmatrix_rowon_out_n_11_ a_nmatrix_rowon_out_n_12_ a_nmatrix_rowon_out_n_13_ a_nmatrix_rowon_out_n_14_ a_nmatrix_rowon_out_n_15_ a_pmatrix_bincap_out_n_0_ a_pmatrix_bincap_out_n_1_ a_pmatrix_bincap_out_n_2_ a_pmatrix_c0_out_n a_pmatrix_col_out_n_0_ a_pmatrix_col_out_n_1_ a_pmatrix_col_out_n_2_ a_pmatrix_col_out_n_3_ a_pmatrix_col_out_n_4_ a_pmatrix_col_out_n_5_ a_pmatrix_col_out_n_6_ a_pmatrix_col_out_n_7_ a_pmatrix_col_out_n_8_ a_pmatrix_col_out_n_9_ a_pmatrix_col_out_n_10_ a_pmatrix_col_out_n_11_ a_pmatrix_col_out_n_12_ a_pmatrix_col_out_n_13_ a_pmatrix_col_out_n_14_ a_pmatrix_col_out_n_15_ a_pmatrix_col_out_n_16_ a_pmatrix_col_out_n_17_ a_pmatrix_col_out_n_18_ a_pmatrix_col_out_n_19_  a_pmatrix_col_out_n_20_ a_pmatrix_col_out_n_21_ a_pmatrix_col_out_n_22_ a_pmatrix_col_out_n_23_ a_pmatrix_col_out_n_24_ a_pmatrix_col_out_n_25_ a_pmatrix_col_out_n_26_ a_pmatrix_col_out_n_27_ a_pmatrix_col_out_n_28_ a_pmatrix_col_out_n_29_  a_pmatrix_col_out_n_30_ a_pmatrix_col_out_n_31_ a_pmatrix_row_out_n_0_ a_pmatrix_row_out_n_1_ a_pmatrix_row_out_n_2_ a_pmatrix_row_out_n_3_ a_pmatrix_row_out_n_4_ a_pmatrix_row_out_n_5_ a_pmatrix_row_out_n_6_ a_pmatrix_row_out_n_7_ a_pmatrix_row_out_n_8_ a_pmatrix_row_out_n_9_ a_pmatrix_row_out_n_10_ a_pmatrix_row_out_n_11_ a_pmatrix_row_out_n_12_ a_pmatrix_row_out_n_13_ a_pmatrix_row_out_n_14_ a_pmatrix_row_out_n_15_ a_pmatrix_rowon_out_n_0_ a_pmatrix_rowon_out_n_1_ a_pmatrix_rowon_out_n_2_ a_pmatrix_rowon_out_n_3_ a_pmatrix_rowon_out_n_4_ a_pmatrix_rowon_out_n_5_ a_pmatrix_rowon_out_n_6_ a_pmatrix_rowon_out_n_7_ a_pmatrix_rowon_out_n_8_ a_pmatrix_rowon_out_n_9_ a_pmatrix_rowon_out_n_10_ a_pmatrix_rowon_out_n_11_ a_pmatrix_rowon_out_n_12_ a_pmatrix_rowon_out_n_13_ a_pmatrix_rowon_out_n_14_ a_pmatrix_rowon_out_n_15_ a_result_out_0_ a_result_out_1_ a_result_out_2_ a_result_out_3_ a_result_out_4_ a_result_out_5_ a_result_out_6_ a_result_out_7_ a_result_out_8_ a_result_out_9_ a_result_out_10_ a_result_out_11_ a_result_out_12_ a_result_out_13_ a_result_out_14_ a_result_out_15_ a_rst_n a_sample_matrix_out a_sample_matrix_out_n a_sample_switch_out a_sample_switch_out_n a_nmatrix_rowoff_out_n_0_ a_nmatrix_rowoff_out_n_1_ a_nmatrix_rowoff_out_n_2_ a_nmatrix_rowoff_out_n_3_ a_nmatrix_rowoff_out_n_4_ a_nmatrix_rowoff_out_n_5_ a_nmatrix_rowoff_out_n_6_ a_nmatrix_rowoff_out_n_7_ a_nmatrix_rowoff_out_n_8_ a_nmatrix_rowoff_out_n_9_ a_nmatrix_rowoff_out_n_10_ a_nmatrix_rowoff_out_n_11_ a_nmatrix_rowoff_out_n_12_ a_nmatrix_rowoff_out_n_13_ a_nmatrix_rowoff_out_n_14_ a_nmatrix_rowoff_out_n_15_ a_nmatrix_col_out_0_ a_nmatrix_col_out_1_ a_nmatrix_col_out_2_ a_nmatrix_col_out_3_ a_nmatrix_col_out_4_ a_nmatrix_col_out_5_ a_nmatrix_col_out_6_ a_nmatrix_col_out_7_ a_nmatrix_col_out_8_ a_nmatrix_col_out_9_ a_nmatrix_col_out_10_ a_nmatrix_col_out_11_ a_nmatrix_col_out_12_ a_nmatrix_col_out_13_ a_nmatrix_col_out_14_ a_nmatrix_col_out_15_ a_nmatrix_col_out_16_ a_nmatrix_col_out_17_ a_nmatrix_col_out_18_ a_nmatrix_col_out_19_  a_nmatrix_col_out_20_ a_nmatrix_col_out_21_ a_nmatrix_col_out_22_ a_nmatrix_col_out_23_ a_nmatrix_col_out_24_ a_nmatrix_col_out_25_ a_nmatrix_col_out_26_ a_nmatrix_col_out_27_ a_nmatrix_col_out_28_ a_nmatrix_col_out_29_  a_nmatrix_col_out_30_ a_nmatrix_col_out_31_ a_pmatrix_rowoff_out_n_0_ a_pmatrix_rowoff_out_n_1_ a_pmatrix_rowoff_out_n_2_ a_pmatrix_rowoff_out_n_3_ a_pmatrix_rowoff_out_n_4_ a_pmatrix_rowoff_out_n_5_ a_pmatrix_rowoff_out_n_6_ a_pmatrix_rowoff_out_n_7_ a_pmatrix_rowoff_out_n_8_ a_pmatrix_rowoff_out_n_9_ a_pmatrix_rowoff_out_n_10_ a_pmatrix_rowoff_out_n_11_ a_pmatrix_rowoff_out_n_12_ a_pmatrix_rowoff_out_n_13_ a_pmatrix_rowoff_out_n_14_ a_pmatrix_rowoff_out_n_15_ a_pmatrix_col_out_0_ a_pmatrix_col_out_1_ a_pmatrix_col_out_2_ a_pmatrix_col_out_3_ a_pmatrix_col_out_4_ a_pmatrix_col_out_5_ a_pmatrix_col_out_6_ a_pmatrix_col_out_7_ a_pmatrix_col_out_8_ a_pmatrix_col_out_9_ a_pmatrix_col_out_10_ a_pmatrix_col_out_11_ a_pmatrix_col_out_12_ a_pmatrix_col_out_13_ a_pmatrix_col_out_14_ a_pmatrix_col_out_15_ a_pmatrix_col_out_16_ a_pmatrix_col_out_17_ a_pmatrix_col_out_18_ a_pmatrix_col_out_19_  a_pmatrix_col_out_20_ a_pmatrix_col_out_21_ a_pmatrix_col_out_22_ a_pmatrix_col_out_23_ a_pmatrix_col_out_24_ a_pmatrix_col_out_25_ a_pmatrix_col_out_26_ a_pmatrix_col_out_27_ a_pmatrix_col_out_28_ a_pmatrix_col_out_29_  a_pmatrix_col_out_30_ a_pmatrix_col_out_31_       
A_2037_ [net118] net210 d_lut_sky130_fd_sc_hd__clkbuf_1
A_1270_ [_0694_ _0690_] _0750_ d_lut_sky130_fd_sc_hd__or2_1
A_0985_ [cnb.shift_register_r\_14\_ _0422_ cnb.shift_register_r\_13\_ cnb.shift_register_r\_15\_] _0490_ d_lut_sky130_fd_sc_hd__or4b_2
A_1606_ [_0173_ _0197_] _0198_ d_lut_sky130_fd_sc_hd__nand2b_1
A_1537_ [osr.sample_count_r\_0\_ osr.sample_count_r\_1\_] _0157_ d_lut_sky130_fd_sc_hd__xnor2_1
A_1468_ [_0067_ _0101_ osr.result_r\_5\_] _0102_ d_lut_sky130_fd_sc_hd__a21oi_1
A_1399_ [_0722_ _0820_ _0821_ _0704_ _0767_] net65 d_lut_sky130_fd_sc_hd__a221o_2
A_1322_ [_0695_ _0742_] _0785_ d_lut_sky130_fd_sc_hd__or2_1
A_1253_ [_0656_ _0699_] _0736_ d_lut_sky130_fd_sc_hd__nand2_2
A_1184_ [_0564_ _0660_ _0674_ _0573_] _0675_ d_lut_sky130_fd_sc_hd__o211a_1
A_0968_ [cnb.shift_register_r\_9\_ cnb.shift_register_r\_8\_ cnb.shift_register_r\_11\_ _0426_] _0476_ d_lut_sky130_fd_sc_hd__nor4_4
A_0899_ [cnb.average_counter_r\_3\_ _0386_ _0411_] _0412_ d_lut_sky130_fd_sc_hd__a21oi_1
Aoutput231 [net231] pmatrix_rowon_out_n_3_ d_lut_sky130_fd_sc_hd__buf_2
Aoutput220 [net220] pmatrix_rowoff_out_n_7_ d_lut_sky130_fd_sc_hd__buf_2
Aoutput242 [net242] result_out_13_ d_lut_sky130_fd_sc_hd__buf_2
Aoutput253 [net253] result_out_9_ d_lut_sky130_fd_sc_hd__buf_2
A_1940_ _0008_ net283 NULL ~net269 cnb.shift_register_r\_2\_ NULL ddflop
A_1871_ [cnb.result_out\_9\_ _0254_] _0326_ d_lut_sky130_fd_sc_hd__and2_1
A_1305_ [_0699_ _0774_ _0704_] _0775_ d_lut_sky130_fd_sc_hd__a21oi_4
A_1236_ [_0705_] _0722_ d_lut_sky130_fd_sc_hd__buf_4
A_1167_ [_0534_ _0566_] _0658_ d_lut_sky130_fd_sc_hd__nand2_1
A_1098_ [_0581_ _0594_] _0595_ d_lut_sky130_fd_sc_hd__nand2_1
A_1021_ [cnb.shift_register_r\_11\_ _0426_ _0416_] _0522_ d_lut_sky130_fd_sc_hd__or3_1
A_1923_ cnb.next_data_register_w\_11\_ net283 NULL ~net269 cnb.data_register_r\_11\_ NULL ddflop
A_1854_ [osr.result_r\_11\_ _0130_] _0311_ d_lut_sky130_fd_sc_hd__and2b_1
A_1785_ [_0249_ _0069_ _0252_] _0253_ d_lut_sky130_fd_sc_hd__or3_1
A_1219_ [_0697_ _0703_ _0707_] net171 d_lut_sky130_fd_sc_hd__a21oi_2
A_1570_ [_0609_ _0631_ _0624_ _0177_] _0178_ d_lut_sky130_fd_sc_hd__o211a_1
A_1004_ [cnb.shift_register_r\_8\_ cnb.shift_register_r\_9\_] _0506_ d_lut_sky130_fd_sc_hd__or2b_1
A_1906_ [_0348_] _0048_ d_lut_sky130_fd_sc_hd__clkbuf_1
A_1837_ [cnb.result_out\_5\_ _0349_] _0296_ d_lut_sky130_fd_sc_hd__and2_1
A_1768_ [cnb.shift_register_r\_11\_ _0422_ _0397_] _0242_ d_lut_sky130_fd_sc_hd__mux2_1
A_1699_ [_0704_ _0802_ _0803_ _0722_ _0740_] net43 d_lut_sky130_fd_sc_hd__a221oi_4
Aoutput20 [net20] nmatrix_col_out_14_ d_lut_sky130_fd_sc_hd__buf_2
Aoutput31 [net31] nmatrix_col_out_24_ d_lut_sky130_fd_sc_hd__buf_2
Aoutput42 [net42] nmatrix_col_out_5_ d_lut_sky130_fd_sc_hd__buf_2
Aoutput64 [net64] nmatrix_col_out_n_25_ d_lut_sky130_fd_sc_hd__buf_2
Aoutput53 [net53] nmatrix_col_out_n_15_ d_lut_sky130_fd_sc_hd__buf_2
Aoutput75 [net75] nmatrix_col_out_n_6_ d_lut_sky130_fd_sc_hd__buf_2
Aoutput86 [net86] nmatrix_row_out_n_1_ d_lut_sky130_fd_sc_hd__buf_2
Aoutput97 [net97] nmatrix_rowoff_out_n_12_ d_lut_sky130_fd_sc_hd__buf_2
A_1622_ [_0202_] net227 d_lut_sky130_fd_sc_hd__clkbuf_1
A_1553_ [osr.sample_count_r\_6\_ _0167_] _0168_ d_lut_sky130_fd_sc_hd__xnor2_1
A_1484_ [_0109_ _0086_] _0115_ d_lut_sky130_fd_sc_hd__nor2_1
A_2036_ [net123] net220 d_lut_sky130_fd_sc_hd__clkbuf_1
A_0984_ [cnb.shift_register_r\_15\_ cnb.shift_register_r\_12\_ cnb.shift_register_r\_13\_ cnb.shift_register_r\_14\_] _0489_ d_lut_sky130_fd_sc_hd__or4b_2
A_1605_ [net235] net221 d_lut_sky130_fd_sc_hd__clkinv_2
A_1536_ [osr.sample_count_r\_0\_ _0156_] osr.next_sample_count_w\_0\_ d_lut_sky130_fd_sc_hd__nand2_1
A_1467_ [osr.result_r\_4\_ _0065_ cnb.result_out\_4\_] _0101_ d_lut_sky130_fd_sc_hd__o21ai_1
A_1398_ [_0720_ _0699_ _0695_] _0821_ d_lut_sky130_fd_sc_hd__o21ai_2
A_2019_ [net85] net192 d_lut_sky130_fd_sc_hd__clkbuf_1
A_1321_ [_0745_ _0739_ _0784_] net176 d_lut_sky130_fd_sc_hd__a21oi_4
A_1252_ [_0716_ _0734_ _0735_] net188 d_lut_sky130_fd_sc_hd__a21o_1
A_1183_ [_0492_ _0578_ _0672_ _0673_ cnb.data_register_r\_7\_] _0674_ d_lut_sky130_fd_sc_hd__a2111o_1
A_0967_ [_0418_ _0420_] _0475_ d_lut_sky130_fd_sc_hd__nand2_1
Aoutput210 [net210] pmatrix_rowoff_out_n_12_ d_lut_sky130_fd_sc_hd__buf_2
A_0898_ [cnb.average_counter_r\_4\_] _0411_ d_lut_sky130_fd_sc_hd__inv_2
Aoutput232 [net232] pmatrix_rowon_out_n_4_ d_lut_sky130_fd_sc_hd__buf_2
Aoutput221 [net221] pmatrix_rowoff_out_n_8_ d_lut_sky130_fd_sc_hd__buf_2
Aoutput243 [net243] result_out_14_ d_lut_sky130_fd_sc_hd__buf_2
Aoutput254 [net260] sample_matrix_out d_lut_sky130_fd_sc_hd__buf_2
A_1519_ [_0143_ _0145_] osr.next_result_w\_14\_ d_lut_sky130_fd_sc_hd__nor2_1
A_1870_ [_0266_ osr.next_result_w\_11\_] _0325_ d_lut_sky130_fd_sc_hd__or2_1
A_1304_ [_0653_ _0726_] _0774_ d_lut_sky130_fd_sc_hd__nor2_1
A_1235_ [_0692_ _0720_] _0721_ d_lut_sky130_fd_sc_hd__nand2_1
A_1166_ [_0580_ _0588_] _0657_ d_lut_sky130_fd_sc_hd__xor2_4
A_1097_ [_0463_ _0562_ _0460_] _0594_ d_lut_sky130_fd_sc_hd__a21o_1
A_1999_ _0047_ net285 NULL ~net273 cnb.result_out\_8\_ NULL ddflop
A_1020_ [_0415_ _0422_ _0414_] _0521_ d_lut_sky130_fd_sc_hd__or3_1
A_1922_ cnb.next_data_register_w\_10\_ net283 NULL ~net271 cnb.data_register_r\_10\_ NULL ddflop
A_1853_ [osr.next_result_w\_13\_ _0309_ _0353_] _0310_ d_lut_sky130_fd_sc_hd__mux2_1
A_1784_ [_0351_ _0366_] _0252_ d_lut_sky130_fd_sc_hd__nor2_4
A_1218_ [_0704_ _0706_] _0707_ d_lut_sky130_fd_sc_hd__and2_1
A_1149_ [_0629_ _0642_] _0643_ d_lut_sky130_fd_sc_hd__and2_1
A_1003_ [_0484_ _0493_] _0505_ d_lut_sky130_fd_sc_hd__nand2_1
A_1905_ [cnb.result_out\_9\_ cnb.next_data_register_w\_9\_ _0232_] _0348_ d_lut_sky130_fd_sc_hd__mux2_1
A_1836_ [cnb.result_out\_4\_ _0254_ _0293_ _0295_] _0031_ d_lut_sky130_fd_sc_hd__a211o_1
A_1767_ [_0241_] _0016_ d_lut_sky130_fd_sc_hd__clkbuf_1
A_1698_ [_0217_] net42 d_lut_sky130_fd_sc_hd__clkbuf_1
Aoutput43 [net43] nmatrix_col_out_6_ d_lut_sky130_fd_sc_hd__buf_2
Aoutput21 [net21] nmatrix_col_out_15_ d_lut_sky130_fd_sc_hd__buf_2
Aoutput32 [net32] nmatrix_col_out_25_ d_lut_sky130_fd_sc_hd__buf_2
Aoutput10 [net10] conv_finished_out d_lut_sky130_fd_sc_hd__buf_2
Aoutput76 [net76] nmatrix_col_out_n_7_ d_lut_sky130_fd_sc_hd__buf_2
Aoutput65 [net65] nmatrix_col_out_n_26_ d_lut_sky130_fd_sc_hd__buf_2
Aoutput54 [net54] nmatrix_col_out_n_16_ d_lut_sky130_fd_sc_hd__buf_2
Aoutput98 [net98] nmatrix_rowoff_out_n_13_ d_lut_sky130_fd_sc_hd__buf_2
Aoutput87 [net87] nmatrix_row_out_n_2_ d_lut_sky130_fd_sc_hd__buf_2
A_1621_ [_0181_ net258] _0202_ d_lut_sky130_fd_sc_hd__or2_1
A_1552_ [osr.sample_count_r\_4\_ osr.sample_count_r\_5\_ _0162_] _0167_ d_lut_sky130_fd_sc_hd__and3_1
A_1483_ [cnb.result_out\_10\_] _0114_ d_lut_sky130_fd_sc_hd__inv_2
A_2035_ [net112] net217 d_lut_sky130_fd_sc_hd__clkbuf_1
A_1819_ [_0097_ _0374_] _0281_ d_lut_sky130_fd_sc_hd__nor2_1
A_0983_ [_0422_ _0414_] _0488_ d_lut_sky130_fd_sc_hd__xnor2_1
A_1604_ [_0180_ _0197_] net92 d_lut_sky130_fd_sc_hd__nand2_4
A_1535_ [osr.is_last_sample] _0156_ d_lut_sky130_fd_sc_hd__inv_2
A_1466_ [cnb.result_out\_3\_ _0100_] osr.next_result_w\_3\_ d_lut_sky130_fd_sc_hd__xnor2_2
A_1397_ [_0692_ _0654_ _0784_] _0820_ d_lut_sky130_fd_sc_hd__a21o_1
A_1320_ [_0589_ _0690_] _0784_ d_lut_sky130_fd_sc_hd__nor2_4
A_1251_ [_0613_ _0691_ _0733_ _0708_] _0735_ d_lut_sky130_fd_sc_hd__a22o_1
A_1182_ [cnb.shift_register_r\_16\_ _0430_ _0521_ _0458_] _0673_ d_lut_sky130_fd_sc_hd__or4_1
A_0966_ [cnb.data_register_r\_1\_ _0473_] _0474_ d_lut_sky130_fd_sc_hd__nor2_1
A_0897_ [_0397_ _0410_] cnb.next_average_counter_w\_3\_ d_lut_sky130_fd_sc_hd__nor2_1
Aoutput200 [net200] pmatrix_row_out_n_2_ d_lut_sky130_fd_sc_hd__buf_2
Aoutput222 [net222] pmatrix_rowoff_out_n_9_ d_lut_sky130_fd_sc_hd__buf_2
Aoutput244 [net244] result_out_15_ d_lut_sky130_fd_sc_hd__buf_2
Aoutput233 [net233] pmatrix_rowon_out_n_5_ d_lut_sky130_fd_sc_hd__buf_2
Aoutput211 [net211] pmatrix_rowoff_out_n_13_ d_lut_sky130_fd_sc_hd__buf_2
Aoutput255 [net255] sample_matrix_out_n d_lut_sky130_fd_sc_hd__buf_2
A_1518_ [osr.result_r\_14\_ _0144_] _0145_ d_lut_sky130_fd_sc_hd__xnor2_1
A_1449_ [cnb.result_out\_8\_] _0086_ d_lut_sky130_fd_sc_hd__inv_2
A_1303_ [_0693_ _0772_] _0773_ d_lut_sky130_fd_sc_hd__nor2_2
A_1234_ [_0655_] _0720_ d_lut_sky130_fd_sc_hd__buf_4
A_1165_ [_0653_ _0655_] _0656_ d_lut_sky130_fd_sc_hd__or2_2
A_1096_ [_0593_] cnb.next_data_register_w\_7\_ d_lut_sky130_fd_sc_hd__clkbuf_1
A_1998_ _0046_ net284 NULL ~net272 cnb.result_out\_7\_ NULL ddflop
A_0949_ [_0455_ _0456_ net259] cnb.next_data_register_w\_0\_ d_lut_sky130_fd_sc_hd__o21a_1
A_1921_ cnb.next_data_register_w\_9\_ net284 NULL ~net270 cnb.data_register_r\_9\_ NULL ddflop
A_1852_ [_0307_ _0308_ _0130_] _0309_ d_lut_sky130_fd_sc_hd__mux2_1
A_1783_ [net238 _0250_] _0251_ d_lut_sky130_fd_sc_hd__nand2_1
A_1217_ [_0705_ _0654_ _0698_ _0695_] _0706_ d_lut_sky130_fd_sc_hd__a31o_1
A_1148_ [cnb.data_register_r\_11\_ _0641_] _0642_ d_lut_sky130_fd_sc_hd__xor2_1
A_1079_ [_0416_ _0422_] _0577_ d_lut_sky130_fd_sc_hd__xor2_1
A_1002_ [cnb.data_register_r\_2\_ _0481_ _0504_ net259] cnb.next_data_register_w\_2\_ d_lut_sky130_fd_sc_hd__o211a_1
A_1904_ [_0347_] _0047_ d_lut_sky130_fd_sc_hd__clkbuf_1
A_1835_ [_0361_ osr.next_result_w\_10\_ _0277_ osr.next_result_w\_8\_ _0294_] _0295_ d_lut_sky130_fd_sc_hd__o221a_1
A_1766_ [cnb.shift_register_r\_11\_ _0426_ _0394_] _0241_ d_lut_sky130_fd_sc_hd__mux2_1
A_1697_ [_0723_ _0735_] _0217_ d_lut_sky130_fd_sc_hd__or2_1
Aoutput22 [net22] nmatrix_col_out_16_ d_lut_sky130_fd_sc_hd__buf_2
Aoutput11 [net259] enable_loop_out d_lut_sky130_fd_sc_hd__buf_2
Aoutput33 [net33] nmatrix_col_out_26_ d_lut_sky130_fd_sc_hd__buf_2
Aoutput66 [net66] nmatrix_col_out_n_27_ d_lut_sky130_fd_sc_hd__buf_2
Aoutput55 [net55] nmatrix_col_out_n_17_ d_lut_sky130_fd_sc_hd__buf_2
Aoutput44 [net44] nmatrix_col_out_7_ d_lut_sky130_fd_sc_hd__buf_2
Aoutput88 [net88] nmatrix_row_out_n_3_ d_lut_sky130_fd_sc_hd__buf_2
Aoutput77 [net77] nmatrix_col_out_n_8_ d_lut_sky130_fd_sc_hd__buf_2
Aoutput99 [net99] nmatrix_rowoff_out_n_14_ d_lut_sky130_fd_sc_hd__buf_2
A_1620_ [_0201_] net87 d_lut_sky130_fd_sc_hd__clkbuf_1
A_1551_ [_0165_ _0166_ _0156_] osr.next_sample_count_w\_5\_ d_lut_sky130_fd_sc_hd__o21a_1
A_1482_ [cnb.result_out\_9\_ _0113_] osr.next_result_w\_9\_ d_lut_sky130_fd_sc_hd__xor2_2
A_2034_ [net79] net198 d_lut_sky130_fd_sc_hd__clkbuf_1
A_1818_ [_0280_] _0028_ d_lut_sky130_fd_sc_hd__clkbuf_1
A_1749_ [cnb.shift_register_r\_1\_ _0394_ _0232_] _0007_ d_lut_sky130_fd_sc_hd__a21o_1
A_0982_ [cnb.shift_register_r\_16\_ cnb.shift_register_r\_6\_] _0487_ d_lut_sky130_fd_sc_hd__nor2_1
A_1603_ [_0637_ net122] _0197_ d_lut_sky130_fd_sc_hd__and2_2
A_1534_ [_0143_ _0155_] osr.next_result_w\_19\_ d_lut_sky130_fd_sc_hd__nor2_1
A_1465_ [_0051_ _0099_] _0100_ d_lut_sky130_fd_sc_hd__nand2_1
A_1396_ [_0715_ _0818_ _0819_] net64 d_lut_sky130_fd_sc_hd__o21ai_2
A_1250_ [_0711_ _0726_ _0733_] _0734_ d_lut_sky130_fd_sc_hd__a21o_1
A_1181_ [_0416_ _0476_ _0462_ _0671_] _0672_ d_lut_sky130_fd_sc_hd__o2bb2a_1
A_0965_ [_0464_ _0469_ _0472_] _0473_ d_lut_sky130_fd_sc_hd__or3_1
A_0896_ [cnb.average_counter_r\_3\_ _0386_] _0410_ d_lut_sky130_fd_sc_hd__xnor2_1
Aoutput201 [net201] pmatrix_row_out_n_3_ d_lut_sky130_fd_sc_hd__buf_2
Aoutput212 [net212] pmatrix_rowoff_out_n_14_ d_lut_sky130_fd_sc_hd__buf_2
Aoutput234 [net234] pmatrix_rowon_out_n_6_ d_lut_sky130_fd_sc_hd__buf_2
Aoutput223 [net223] pmatrix_rowon_out_n_0_ d_lut_sky130_fd_sc_hd__buf_2
Aoutput256 [net256] sample_switch_out d_lut_sky130_fd_sc_hd__buf_2
Aoutput245 [net245] result_out_1_ d_lut_sky130_fd_sc_hd__buf_2
A_1517_ [osr.result_r\_12\_ osr.result_r\_13\_ _0139_] _0144_ d_lut_sky130_fd_sc_hd__and3_1
A_1448_ [_0085_] osr.next_result_w\_6\_ d_lut_sky130_fd_sc_hd__inv_2
A_1379_ [_0738_ _0699_ _0737_] _0812_ d_lut_sky130_fd_sc_hd__a21oi_1
A_1302_ [_0708_ _0709_ _0591_] _0772_ d_lut_sky130_fd_sc_hd__a21oi_1
A_1233_ [_0590_ _0709_] _0719_ d_lut_sky130_fd_sc_hd__nand2_2
A_1164_ [_0519_ _0654_] _0655_ d_lut_sky130_fd_sc_hd__nand2_2
A_1095_ [net259 _0592_] _0593_ d_lut_sky130_fd_sc_hd__and2_1
A_1997_ _0045_ net285 NULL ~net273 cnb.result_out\_6\_ NULL ddflop
A_0948_ [_0457_] net11 d_lut_sky130_fd_sc_hd__clkbuf_1
A_0879_ [_0397_ _0399_] cnb.next_average_sum_w\_1\_ d_lut_sky130_fd_sc_hd__nor2_1
Afanout280 [net281] net280 d_lut_sky130_fd_sc_hd__buf_2
A_1920_ cnb.next_data_register_w\_8\_ net284 NULL ~net270 cnb.data_register_r\_8\_ NULL ddflop
A_1851_ [osr.result_r\_11\_ _0306_] _0308_ d_lut_sky130_fd_sc_hd__and2_1
A_1782_ [_0249_] _0250_ d_lut_sky130_fd_sc_hd__buf_2
A_1216_ [_0542_ _0548_ _0553_ _0558_] _0705_ d_lut_sky130_fd_sc_hd__a211o_4
A_1147_ [cnb.shift_register_r\_16\_ _0419_ _0485_] _0641_ d_lut_sky130_fd_sc_hd__and3_1
A_1078_ [_0415_ _0414_] _0576_ d_lut_sky130_fd_sc_hd__nor2_1
A_1001_ [_0481_ net14] _0504_ d_lut_sky130_fd_sc_hd__nand2_1
A_1903_ [cnb.result_out\_8\_ cnb.next_data_register_w\_8\_ _0232_] _0347_ d_lut_sky130_fd_sc_hd__mux2_1
A_1834_ [_0266_ osr.next_result_w\_6\_ osr.next_result_w\_12\_ _0252_ _0376_] _0294_ d_lut_sky130_fd_sc_hd__o221a_1
A_1765_ [_0240_] _0015_ d_lut_sky130_fd_sc_hd__clkbuf_1
A_1696_ [_0696_ _0719_ _0800_ _0801_] net41 d_lut_sky130_fd_sc_hd__a22oi_4
Aoutput34 [net34] nmatrix_col_out_27_ d_lut_sky130_fd_sc_hd__buf_2
Aoutput12 [net12] nmatrix_bincap_out_n_0_ d_lut_sky130_fd_sc_hd__buf_2
Aoutput23 [net23] nmatrix_col_out_17_ d_lut_sky130_fd_sc_hd__buf_2
Aoutput67 [net67] nmatrix_col_out_n_28_ d_lut_sky130_fd_sc_hd__buf_2
Aoutput45 [net45] nmatrix_col_out_8_ d_lut_sky130_fd_sc_hd__buf_2
Aoutput56 [net56] nmatrix_col_out_n_18_ d_lut_sky130_fd_sc_hd__buf_2
Aoutput78 [net78] nmatrix_col_out_n_9_ d_lut_sky130_fd_sc_hd__buf_2
Aoutput89 [net89] nmatrix_row_out_n_4_ d_lut_sky130_fd_sc_hd__buf_2
A_1550_ [osr.sample_count_r\_4\_ _0164_ _0162_] _0166_ d_lut_sky130_fd_sc_hd__and3_1
A_1481_ [_0087_ _0112_] _0113_ d_lut_sky130_fd_sc_hd__nor2_1
A_2033_ [net86] net197 d_lut_sky130_fd_sc_hd__clkbuf_1
A_1817_ [_0276_ _0279_] _0280_ d_lut_sky130_fd_sc_hd__or2_1
A_1748_ [_0231_] _0232_ d_lut_sky130_fd_sc_hd__clkbuf_4
A_1679_ [_0627_ _0644_ _0645_ _0648_] net108 d_lut_sky130_fd_sc_hd__o211a_1
A_0981_ [_0465_ _0466_ cnb.shift_register_r\_4\_] _0486_ d_lut_sky130_fd_sc_hd__mux2_1
A_1602_ [_0638_ _0191_ net235] net123 d_lut_sky130_fd_sc_hd__o21ai_4
A_1533_ [osr.result_r\_19\_ _0154_] _0155_ d_lut_sky130_fd_sc_hd__xor2_1
A_1464_ [osr.result_r\_3\_ _0098_] _0099_ d_lut_sky130_fd_sc_hd__xnor2_1
A_1395_ [_0737_ _0791_ _0767_] _0819_ d_lut_sky130_fd_sc_hd__a21oi_1
A_1180_ [cnb.shift_register_r\_9\_ cnb.shift_register_r\_8\_ _0416_] _0671_ d_lut_sky130_fd_sc_hd__or3_1
A_0964_ [_0415_ _0470_ _0471_ _0421_ _0424_] _0472_ d_lut_sky130_fd_sc_hd__o2111a_2
A_0895_ [_0397_ _0409_] cnb.next_average_counter_w\_2\_ d_lut_sky130_fd_sc_hd__nor2_1
Aoutput224 [net224] pmatrix_rowon_out_n_10_ d_lut_sky130_fd_sc_hd__buf_2
Aoutput202 [net202] pmatrix_row_out_n_4_ d_lut_sky130_fd_sc_hd__buf_2
Aoutput213 [net213] pmatrix_rowoff_out_n_15_ d_lut_sky130_fd_sc_hd__buf_2
Aoutput235 [net235] pmatrix_rowon_out_n_7_ d_lut_sky130_fd_sc_hd__buf_2
Aoutput246 [net246] result_out_2_ d_lut_sky130_fd_sc_hd__buf_2
A_1516_ [_0087_] _0143_ d_lut_sky130_fd_sc_hd__buf_2
Aoutput257 [net257] sample_switch_out_n d_lut_sky130_fd_sc_hd__buf_2
A_1447_ [cnb.result_out\_6\_ _0084_] _0085_ d_lut_sky130_fd_sc_hd__xor2_1
A_1378_ [net22] net54 d_lut_sky130_fd_sc_hd__clkinv_2
A_1301_ [_0741_ _0769_ _0771_ _0702_] net168 d_lut_sky130_fd_sc_hd__a22o_1
A_1232_ [_0716_ _0717_ _0718_] net185 d_lut_sky130_fd_sc_hd__a21o_1
A_1163_ [_0534_ _0565_] _0654_ d_lut_sky130_fd_sc_hd__xnor2_4
A_1094_ [cnb.data_register_r\_7\_ _0591_ _0481_] _0592_ d_lut_sky130_fd_sc_hd__mux2_1
A_1996_ _0044_ net285 NULL ~net273 cnb.result_out\_5\_ NULL ddflop
A_0947_ [net260] _0457_ d_lut_sky130_fd_sc_hd__inv_2
A_0878_ [cnb.average_sum_r\_1\_ _0398_] _0399_ d_lut_sky130_fd_sc_hd__xor2_1
Afanout281 [net282] net281 d_lut_sky130_fd_sc_hd__buf_2
Afanout270 [net9] net270 d_lut_sky130_fd_sc_hd__buf_4
A_1850_ [_0306_ cnb.result_out\_11\_ osr.result_r\_11\_] _0307_ d_lut_sky130_fd_sc_hd__mux2_1
A_1781_ [_0087_ _0358_ _0248_] _0249_ d_lut_sky130_fd_sc_hd__or3_2
A_1215_ [_0657_] _0704_ d_lut_sky130_fd_sc_hd__buf_4
A_1146_ [_0640_] cnb.next_data_register_w\_10\_ d_lut_sky130_fd_sc_hd__clkbuf_1
A_1077_ [_0574_ _0575_ net259] cnb.next_data_register_w\_6\_ d_lut_sky130_fd_sc_hd__o21a_1
A_1979_ _0027_ net263 NULL ~net279 net248 NULL ddflop
A_1000_ [net127] net14 d_lut_sky130_fd_sc_hd__inv_2
A_1902_ [cnb.result_out\_7\_ _0345_ _0346_ _0592_] _0046_ d_lut_sky130_fd_sc_hd__a22o_1
A_1833_ [net252 _0257_ _0250_] _0293_ d_lut_sky130_fd_sc_hd__and3_1
A_1764_ [cnb.shift_register_r\_9\_ _0426_ _0397_] _0240_ d_lut_sky130_fd_sc_hd__mux2_1
A_1695_ [_0745_ _0733_ _0713_] net40 d_lut_sky130_fd_sc_hd__o21a_1
A_1129_ [_0620_ _0621_ _0624_] _0625_ d_lut_sky130_fd_sc_hd__and3_2
Aoutput13 [net13] nmatrix_bincap_out_n_1_ d_lut_sky130_fd_sc_hd__buf_2
Aoutput24 [net24] nmatrix_col_out_18_ d_lut_sky130_fd_sc_hd__buf_2
Aoutput46 [net46] nmatrix_col_out_9_ d_lut_sky130_fd_sc_hd__buf_2
Aoutput57 [net57] nmatrix_col_out_n_19_ d_lut_sky130_fd_sc_hd__buf_2
Aoutput35 [net35] nmatrix_col_out_28_ d_lut_sky130_fd_sc_hd__buf_2
Aoutput79 [net79] nmatrix_row_out_n_0_ d_lut_sky130_fd_sc_hd__buf_2
Aoutput68 [net68] nmatrix_col_out_n_29_ d_lut_sky130_fd_sc_hd__buf_2
A_1480_ [osr.result_r\_9\_ _0111_] _0112_ d_lut_sky130_fd_sc_hd__xnor2_1
A_2032_ [net87] net196 d_lut_sky130_fd_sc_hd__clkbuf_1
A_1816_ [_0361_ osr.next_result_w\_7\_ osr.next_result_w\_9\_ _0252_ _0278_] _0279_ d_lut_sky130_fd_sc_hd__o221a_1
A_1747_ [_0392_ cnb.shift_register_r\_2\_] _0231_ d_lut_sky130_fd_sc_hd__and2b_1
A_1678_ [_0212_] net93 d_lut_sky130_fd_sc_hd__dlymetal6s2s_1
A_0980_ [_0423_ _0433_ _0458_] _0485_ d_lut_sky130_fd_sc_hd__nor3_1
A_1601_ [_0196_ _0191_ net235] net234 d_lut_sky130_fd_sc_hd__o21a_1
A_1532_ [osr.result_r\_18\_ _0152_] _0154_ d_lut_sky130_fd_sc_hd__nand2_1
A_1463_ [_0097_ _0057_ _0056_] _0098_ d_lut_sky130_fd_sc_hd__o21ba_1
A_1394_ [_0695_ _0720_ _0788_] _0818_ d_lut_sky130_fd_sc_hd__o21a_1
A_0963_ [_0416_ _0414_ _0415_] _0471_ d_lut_sky130_fd_sc_hd__o21ai_1
A_0894_ [cnb.average_counter_r\_2\_ _0408_] _0409_ d_lut_sky130_fd_sc_hd__xor2_1
Aoutput203 [net203] pmatrix_row_out_n_5_ d_lut_sky130_fd_sc_hd__buf_2
Aoutput225 [net225] pmatrix_rowon_out_n_11_ d_lut_sky130_fd_sc_hd__buf_2
Aoutput214 [net214] pmatrix_rowoff_out_n_1_ d_lut_sky130_fd_sc_hd__buf_2
Aoutput247 [net247] result_out_3_ d_lut_sky130_fd_sc_hd__buf_2
A_1515_ [_0087_ _0142_] osr.next_result_w\_13\_ d_lut_sky130_fd_sc_hd__nor2_1
Aoutput236 [net236] pmatrix_rowon_out_n_8_ d_lut_sky130_fd_sc_hd__buf_2
A_1446_ [_0053_ _0078_ _0083_] _0084_ d_lut_sky130_fd_sc_hd__or3_1
A_1377_ [_0702_ _0771_ _0806_] net22 d_lut_sky130_fd_sc_hd__a21o_4
A_1300_ [_0770_] _0771_ d_lut_sky130_fd_sc_hd__clkbuf_4
A_1231_ [_0711_ _0691_] _0718_ d_lut_sky130_fd_sc_hd__and2_2
A_1162_ [_0559_] _0653_ d_lut_sky130_fd_sc_hd__clkbuf_4
A_1093_ [_0590_] _0591_ d_lut_sky130_fd_sc_hd__buf_4
A_1995_ _0043_ net284 NULL ~net273 cnb.result_out\_4\_ NULL ddflop
A_0946_ [_0454_ _0442_ _0453_] _0456_ d_lut_sky130_fd_sc_hd__and3_1
A_0877_ [cnb.average_sum_r\_0\_ net2] _0398_ d_lut_sky130_fd_sc_hd__nand2_1
A_1429_ [_0051_ _0066_ _0067_] _0068_ d_lut_sky130_fd_sc_hd__and3_1
Afanout282 [net1] net282 d_lut_sky130_fd_sc_hd__clkbuf_2
Afanout271 [net279] net271 d_lut_sky130_fd_sc_hd__clkbuf_4
Afanout260 [net254] net260 d_lut_sky130_fd_sc_hd__buf_4
A_1780_ [_0365_ _0371_] _0248_ d_lut_sky130_fd_sc_hd__nand2_1
A_1214_ [_0699_ _0702_] _0703_ d_lut_sky130_fd_sc_hd__nand2_1
A_1145_ [net259 _0639_] _0640_ d_lut_sky130_fd_sc_hd__and2_1
A_1076_ [_0573_ _0453_ _0572_] _0575_ d_lut_sky130_fd_sc_hd__and3_1
A_1978_ _0026_ net264 NULL ~net274 net247 NULL ddflop
A_0929_ [_0437_ _0439_ _0440_ cnb.shift_register_r\_3\_] _0441_ d_lut_sky130_fd_sc_hd__a211oi_2
A_1901_ [net254 _0345_] _0346_ d_lut_sky130_fd_sc_hd__nor2_1
A_1832_ [_0292_] _0030_ d_lut_sky130_fd_sc_hd__clkbuf_1
A_1763_ [_0239_] _0014_ d_lut_sky130_fd_sc_hd__clkbuf_1
A_1694_ [_0216_] net79 d_lut_sky130_fd_sc_hd__buf_2
A_1128_ [_0622_ _0623_ _0618_] _0624_ d_lut_sky130_fd_sc_hd__mux2_1
A_1059_ [_0542_ _0548_ _0553_ _0558_] _0559_ d_lut_sky130_fd_sc_hd__a211oi_1
Aoutput25 [net25] nmatrix_col_out_19_ d_lut_sky130_fd_sc_hd__buf_2
Aoutput14 [net14] nmatrix_bincap_out_n_2_ d_lut_sky130_fd_sc_hd__buf_2
Aoutput36 [net36] nmatrix_col_out_29_ d_lut_sky130_fd_sc_hd__buf_2
Aoutput47 [net47] nmatrix_col_out_n_0_ d_lut_sky130_fd_sc_hd__buf_2
Aoutput58 [net58] nmatrix_col_out_n_1_ d_lut_sky130_fd_sc_hd__buf_2
Aoutput69 [net69] nmatrix_col_out_n_2_ d_lut_sky130_fd_sc_hd__buf_2
A_2031_ [net88] net195 d_lut_sky130_fd_sc_hd__clkbuf_2
A_1815_ [_0266_ osr.next_result_w\_3\_ osr.next_result_w\_5\_ _0277_ _0259_] _0278_ d_lut_sky130_fd_sc_hd__o221a_1
A_1746_ [net260 _0394_ cnb.next_conv_finished_w] _0006_ d_lut_sky130_fd_sc_hd__a21o_1
A_1677_ [_0188_ _0192_] _0212_ d_lut_sky130_fd_sc_hd__or2_1
A_1600_ [_0638_] _0196_ d_lut_sky130_fd_sc_hd__clkbuf_16
A_1531_ [_0143_ _0153_] osr.next_result_w\_18\_ d_lut_sky130_fd_sc_hd__nor2_1
A_1462_ [cnb.result_out\_2\_] _0097_ d_lut_sky130_fd_sc_hd__inv_2
A_1393_ [_0786_ _0793_] net63 d_lut_sky130_fd_sc_hd__nor2_2
A_1729_ [_0223_] net226 d_lut_sky130_fd_sc_hd__clkbuf_1
A_0962_ [_0416_ _0414_] _0470_ d_lut_sky130_fd_sc_hd__xor2_1
A_0893_ [cnb.average_counter_r\_1\_ cnb.average_counter_r\_0\_] _0408_ d_lut_sky130_fd_sc_hd__nand2_1
Aoutput215 [net215] pmatrix_rowoff_out_n_2_ d_lut_sky130_fd_sc_hd__buf_2
Aoutput204 [net204] pmatrix_row_out_n_6_ d_lut_sky130_fd_sc_hd__buf_2
Aoutput226 [net226] pmatrix_rowon_out_n_12_ d_lut_sky130_fd_sc_hd__buf_2
Aoutput237 [net237] pmatrix_rowon_out_n_9_ d_lut_sky130_fd_sc_hd__buf_2
Aoutput248 [net248] result_out_4_ d_lut_sky130_fd_sc_hd__buf_2
A_1514_ [osr.result_r\_13\_ _0141_] _0142_ d_lut_sky130_fd_sc_hd__xnor2_1
A_1445_ [_0081_ _0082_] _0083_ d_lut_sky130_fd_sc_hd__nor2_1
A_1376_ [net21] net53 d_lut_sky130_fd_sc_hd__clkinv_2
A_1230_ [_0590_ _0655_ _0709_ _0692_] _0717_ d_lut_sky130_fd_sc_hd__a31o_1
A_1161_ [_0652_] net235 d_lut_sky130_fd_sc_hd__clkbuf_16
A_1092_ [_0589_] _0590_ d_lut_sky130_fd_sc_hd__buf_2
A_1994_ _0042_ net284 NULL ~net273 cnb.result_out\_3\_ NULL ddflop
A_0945_ [_0442_ _0453_ _0454_] _0455_ d_lut_sky130_fd_sc_hd__a21oi_1
A_0876_ [_0396_] _0397_ d_lut_sky130_fd_sc_hd__clkbuf_4
A_1428_ [osr.result_r\_4\_ _0065_] _0067_ d_lut_sky130_fd_sc_hd__nand2_1
A_1359_ [_0699_ _0763_] _0804_ d_lut_sky130_fd_sc_hd__nand2_1
Afanout261 [cnb.conv_finished_r] net261 d_lut_sky130_fd_sc_hd__buf_2
Afanout272 [net274] net272 d_lut_sky130_fd_sc_hd__clkbuf_4
Afanout283 [net286] net283 d_lut_sky130_fd_sc_hd__buf_2
A_1213_ [_0701_] _0702_ d_lut_sky130_fd_sc_hd__buf_2
A_1144_ [cnb.data_register_r\_10\_ _0638_ _0481_] _0639_ d_lut_sky130_fd_sc_hd__mux2_1
A_1075_ [_0453_ _0572_ _0573_] _0574_ d_lut_sky130_fd_sc_hd__a21oi_1
A_1977_ _0025_ net263 NULL ~net271 net246 NULL ddflop
A_0928_ [cnb.shift_register_r\_16\_ _0431_ _0423_ _0433_] _0440_ d_lut_sky130_fd_sc_hd__or4_1
A_0859_ [cnb.sampled_avg_control_r\_0\_ cnb.sampled_avg_control_r\_1\_] _0381_ d_lut_sky130_fd_sc_hd__nand2_1
A_1900_ [_0231_] _0345_ d_lut_sky130_fd_sc_hd__inv_2
A_1831_ [_0287_ _0291_] _0292_ d_lut_sky130_fd_sc_hd__or2_1
A_1762_ [cnb.shift_register_r\_9\_ cnb.shift_register_r\_8\_ _0394_] _0239_ d_lut_sky130_fd_sc_hd__mux2_1