* NGSPICE file created from adc_array_matrix_12bit.ext - technology: sky130A

.subckt adc_array_wafflecap_dummy sample_n colon_n col_n sample vcom row_n ctop VDD
+ VSS
X0 VDD colon_n a_170_252# VDD sky130_fd_pr__pfet_01v8 ad=2.64e+11p pd=2.26e+06u as=7.44e+11p ps=6.66e+06u w=800000u l=150000u
X1 a_662_574# row_n VDD VDD sky130_fd_pr__pfet_01v8 ad=2.64e+11p pd=2.26e+06u as=0p ps=0u w=800000u l=150000u
X2 a_170_252# col_n a_662_574# VDD sky130_fd_pr__pfet_01v8 ad=0p pd=0u as=0p ps=0u w=800000u l=150000u
X3 a_566_252# colon_n a_170_252# VSS sky130_fd_pr__nfet_01v8 ad=2.688e+11p pd=2.96e+06u as=2.604e+11p ps=2.92e+06u w=420000u l=150000u
X4 VSS col_n a_566_252# VSS sky130_fd_pr__nfet_01v8 ad=1.386e+11p pd=1.5e+06u as=0p ps=0u w=420000u l=150000u
X5 a_566_252# row_n VSS VSS sky130_fd_pr__nfet_01v8 ad=0p pd=0u as=0p ps=0u w=420000u l=150000u
X6 a_262_252# sample_n a_170_252# VSS sky130_fd_pr__nfet_01v8 ad=1.386e+11p pd=1.5e+06u as=0p ps=0u w=420000u l=150000u
X7 vcom sample a_262_252# VSS sky130_fd_pr__nfet_01v8 ad=1.302e+11p pd=1.46e+06u as=0p ps=0u w=420000u l=150000u
X8 a_262_252# sample_n vcom VDD sky130_fd_pr__pfet_01v8 ad=2.64e+11p pd=2.26e+06u as=2.48e+11p ps=2.22e+06u w=800000u l=150000u
X9 a_170_252# sample a_262_252# VDD sky130_fd_pr__pfet_01v8 ad=0p pd=0u as=0p ps=0u w=800000u l=150000u
.ends

.subckt adc_array_wafflecap_1 sample_n colon_n col_n sample vcom row_n en_n ctop VDD
+ VSS
X0 VDD en_n a_170_252# VDD sky130_fd_pr__pfet_01v8 ad=2.64e+11p pd=2.26e+06u as=7.44e+11p ps=6.66e+06u w=800000u l=150000u
X1 a_662_574# en_n VDD VDD sky130_fd_pr__pfet_01v8 ad=2.64e+11p pd=2.26e+06u as=0p ps=0u w=800000u l=150000u
X2 a_170_252# en_n a_662_574# VDD sky130_fd_pr__pfet_01v8 ad=0p pd=0u as=0p ps=0u w=800000u l=150000u
X3 a_566_252# en_n a_170_252# VSS sky130_fd_pr__nfet_01v8 ad=2.688e+11p pd=2.96e+06u as=2.604e+11p ps=2.92e+06u w=420000u l=150000u
X4 VSS en_n a_566_252# VSS sky130_fd_pr__nfet_01v8 ad=1.386e+11p pd=1.5e+06u as=0p ps=0u w=420000u l=150000u
X5 a_566_252# en_n VSS VSS sky130_fd_pr__nfet_01v8 ad=0p pd=0u as=0p ps=0u w=420000u l=150000u
X6 a_262_252# sample_n a_170_252# VSS sky130_fd_pr__nfet_01v8 ad=1.386e+11p pd=1.5e+06u as=0p ps=0u w=420000u l=150000u
X7 vcom sample a_262_252# VSS sky130_fd_pr__nfet_01v8 ad=1.302e+11p pd=1.46e+06u as=0p ps=0u w=420000u l=150000u
X8 a_262_252# sample_n vcom VDD sky130_fd_pr__pfet_01v8 ad=2.64e+11p pd=2.26e+06u as=2.48e+11p ps=2.22e+06u w=800000u l=150000u
X9 a_170_252# sample a_262_252# VDD sky130_fd_pr__pfet_01v8 ad=0p pd=0u as=0p ps=0u w=800000u l=150000u
.ends

.subckt adc_array_wafflecap_drv ctop colon_n col_n vcom row_n sample_i sample_n_i
+ sample_n_o sample_o VDD VSS
X0 VSS sample_i sample_n_o VSS sky130_fd_pr__nfet_01v8 ad=5.208e+11p pd=5.84e+06u as=1.386e+11p ps=1.5e+06u w=420000u l=150000u
X1 sample_n_o sample_i VSS VSS sky130_fd_pr__nfet_01v8 ad=0p pd=0u as=0p ps=0u w=420000u l=150000u
X2 VDD sample_i sample_n_o VDD sky130_fd_pr__pfet_01v8 ad=9.92e+11p pd=8.88e+06u as=2.64e+11p ps=2.26e+06u w=800000u l=150000u
X3 sample_n_o sample_i VDD VDD sky130_fd_pr__pfet_01v8 ad=0p pd=0u as=0p ps=0u w=800000u l=150000u
X4 sample_o sample_n_i VSS VSS sky130_fd_pr__nfet_01v8 ad=1.386e+11p pd=1.5e+06u as=0p ps=0u w=420000u l=150000u
X5 VSS sample_n_i sample_o VSS sky130_fd_pr__nfet_01v8 ad=0p pd=0u as=0p ps=0u w=420000u l=150000u
X6 sample_o sample_n_i VDD VDD sky130_fd_pr__pfet_01v8 ad=2.64e+11p pd=2.26e+06u as=0p ps=0u w=800000u l=150000u
X7 VDD sample_n_i sample_o VDD sky130_fd_pr__pfet_01v8 ad=0p pd=0u as=0p ps=0u w=800000u l=150000u
.ends

.subckt adc_array_wafflecap_8 sample_n colon_n col_n sample vcom row_n ctop VDD VSS
X0 VDD colon_n a_170_252# VDD sky130_fd_pr__pfet_01v8 ad=2.64e+11p pd=2.26e+06u as=7.44e+11p ps=6.66e+06u w=800000u l=150000u
X1 a_662_574# row_n VDD VDD sky130_fd_pr__pfet_01v8 ad=2.64e+11p pd=2.26e+06u as=0p ps=0u w=800000u l=150000u
X2 a_170_252# col_n a_662_574# VDD sky130_fd_pr__pfet_01v8 ad=0p pd=0u as=0p ps=0u w=800000u l=150000u
X3 a_566_252# colon_n a_170_252# VSS sky130_fd_pr__nfet_01v8 ad=2.688e+11p pd=2.96e+06u as=2.604e+11p ps=2.92e+06u w=420000u l=150000u
X4 VSS col_n a_566_252# VSS sky130_fd_pr__nfet_01v8 ad=1.386e+11p pd=1.5e+06u as=0p ps=0u w=420000u l=150000u
X5 a_566_252# row_n VSS VSS sky130_fd_pr__nfet_01v8 ad=0p pd=0u as=0p ps=0u w=420000u l=150000u
X6 a_262_252# sample_n a_170_252# VSS sky130_fd_pr__nfet_01v8 ad=1.386e+11p pd=1.5e+06u as=0p ps=0u w=420000u l=150000u
X7 vcom sample a_262_252# VSS sky130_fd_pr__nfet_01v8 ad=1.302e+11p pd=1.46e+06u as=0p ps=0u w=420000u l=150000u
X8 a_262_252# sample_n vcom VDD sky130_fd_pr__pfet_01v8 ad=2.64e+11p pd=2.26e+06u as=2.48e+11p ps=2.22e+06u w=800000u l=150000u
X9 a_170_252# sample a_262_252# VDD sky130_fd_pr__pfet_01v8 ad=0p pd=0u as=0p ps=0u w=800000u l=150000u
.ends

.subckt adc_noise_decoup_cell1 nmoscap_top nmoscap_bot mimcap_top mimcap_bot pwell
X0 mimcap_top mimcap_bot sky130_fd_pr__cap_mim_m3_1 l=1.72e+07u w=1.72e+07u
X1 nmoscap_bot nmoscap_top nmoscap_bot pwell sky130_fd_pr__nfet_01v8 ad=2.296e+13p pd=6.84e+07u as=0p ps=0u w=1.64e+07u l=1.6e+07u
.ends

.subckt adc_array_wafflecap_4 sample_n colon_n col_n sample vcom row_n en_n ctop VDD
+ VSS
X0 VDD en_n a_170_252# VDD sky130_fd_pr__pfet_01v8 ad=2.64e+11p pd=2.26e+06u as=7.44e+11p ps=6.66e+06u w=800000u l=150000u
X1 a_662_574# en_n VDD VDD sky130_fd_pr__pfet_01v8 ad=2.64e+11p pd=2.26e+06u as=0p ps=0u w=800000u l=150000u
X2 a_170_252# en_n a_662_574# VDD sky130_fd_pr__pfet_01v8 ad=0p pd=0u as=0p ps=0u w=800000u l=150000u
X3 a_566_252# en_n a_170_252# VSS sky130_fd_pr__nfet_01v8 ad=2.688e+11p pd=2.96e+06u as=2.604e+11p ps=2.92e+06u w=420000u l=150000u
X4 VSS en_n a_566_252# VSS sky130_fd_pr__nfet_01v8 ad=1.386e+11p pd=1.5e+06u as=0p ps=0u w=420000u l=150000u
X5 a_566_252# en_n VSS VSS sky130_fd_pr__nfet_01v8 ad=0p pd=0u as=0p ps=0u w=420000u l=150000u
X6 a_262_252# sample_n a_170_252# VSS sky130_fd_pr__nfet_01v8 ad=1.386e+11p pd=1.5e+06u as=0p ps=0u w=420000u l=150000u
X7 vcom sample a_262_252# VSS sky130_fd_pr__nfet_01v8 ad=1.302e+11p pd=1.46e+06u as=0p ps=0u w=420000u l=150000u
X8 a_262_252# sample_n vcom VDD sky130_fd_pr__pfet_01v8 ad=2.64e+11p pd=2.26e+06u as=2.48e+11p ps=2.22e+06u w=800000u l=150000u
X9 a_170_252# sample a_262_252# VDD sky130_fd_pr__pfet_01v8 ad=0p pd=0u as=0p ps=0u w=800000u l=150000u
.ends

.subckt adc_array_wafflecap_2 sample_n colon_n col_n sample vcom row_n en_n ctop VDD
+ VSS
X0 VDD en_n a_170_252# VDD sky130_fd_pr__pfet_01v8 ad=2.64e+11p pd=2.26e+06u as=7.44e+11p ps=6.66e+06u w=800000u l=150000u
X1 a_662_574# en_n VDD VDD sky130_fd_pr__pfet_01v8 ad=2.64e+11p pd=2.26e+06u as=0p ps=0u w=800000u l=150000u
X2 a_170_252# en_n a_662_574# VDD sky130_fd_pr__pfet_01v8 ad=0p pd=0u as=0p ps=0u w=800000u l=150000u
X3 a_566_252# en_n a_170_252# VSS sky130_fd_pr__nfet_01v8 ad=2.688e+11p pd=2.96e+06u as=2.604e+11p ps=2.92e+06u w=420000u l=150000u
X4 VSS en_n a_566_252# VSS sky130_fd_pr__nfet_01v8 ad=1.386e+11p pd=1.5e+06u as=0p ps=0u w=420000u l=150000u
X5 a_566_252# en_n VSS VSS sky130_fd_pr__nfet_01v8 ad=0p pd=0u as=0p ps=0u w=420000u l=150000u
X6 a_262_252# sample_n a_170_252# VSS sky130_fd_pr__nfet_01v8 ad=1.386e+11p pd=1.5e+06u as=0p ps=0u w=420000u l=150000u
X7 vcom sample a_262_252# VSS sky130_fd_pr__nfet_01v8 ad=1.302e+11p pd=1.46e+06u as=0p ps=0u w=420000u l=150000u
X8 a_262_252# sample_n vcom VDD sky130_fd_pr__pfet_01v8 ad=2.64e+11p pd=2.26e+06u as=2.48e+11p ps=2.22e+06u w=800000u l=150000u
X9 a_170_252# sample a_262_252# VDD sky130_fd_pr__pfet_01v8 ad=0p pd=0u as=0p ps=0u w=800000u l=150000u
.ends

.subckt adc_array_wafflecap_gate sample_n colon_n col_n sample vcom row_n analog_in
+ sw sw_n a_169_51# VDD VSS li_854_970#
X0 a_169_51# sw_n analog_in VDD sky130_fd_pr__pfet_01v8 ad=2.7075e+12p pd=2.185e+07u as=1.102e+12p ps=8.76e+06u w=1.9e+06u l=220000u
X1 analog_in sw a_169_51# VSS sky130_fd_pr__nfet_01v8 ad=1.102e+12p pd=8.76e+06u as=2.7645e+12p ps=2.191e+07u w=1.9e+06u l=220000u
X2 analog_in sw_n a_169_51# VDD sky130_fd_pr__pfet_01v8 ad=0p pd=0u as=0p ps=0u w=1.9e+06u l=220000u
X3 a_169_51# sw_n analog_in VDD sky130_fd_pr__pfet_01v8 ad=0p pd=0u as=0p ps=0u w=1.9e+06u l=220000u
X4 a_169_51# sw_n a_169_51# VSS sky130_fd_pr__nfet_01v8 ad=0p pd=0u as=0p ps=0u w=1.9e+06u l=220000u
X5 a_169_51# sw analog_in VSS sky130_fd_pr__nfet_01v8 ad=0p pd=0u as=0p ps=0u w=1.9e+06u l=220000u
X6 a_169_51# sw analog_in VSS sky130_fd_pr__nfet_01v8 ad=0p pd=0u as=0p ps=0u w=1.9e+06u l=220000u
X7 a_169_51# sw a_169_51# VDD sky130_fd_pr__pfet_01v8 ad=0p pd=0u as=0p ps=0u w=1.9e+06u l=220000u
X8 analog_in sw a_169_51# VSS sky130_fd_pr__nfet_01v8 ad=0p pd=0u as=0p ps=0u w=1.9e+06u l=220000u
X9 a_169_51# sw a_169_51# VDD sky130_fd_pr__pfet_01v8 ad=0p pd=0u as=0p ps=0u w=1.9e+06u l=220000u
X10 a_169_51# sw_n a_169_51# VSS sky130_fd_pr__nfet_01v8 ad=0p pd=0u as=0p ps=0u w=1.9e+06u l=220000u
X11 analog_in sw_n a_169_51# VDD sky130_fd_pr__pfet_01v8 ad=0p pd=0u as=0p ps=0u w=1.9e+06u l=220000u
.ends

.subckt adc_array_matrix_12bit VDD VSS vcm sample sample_n row_n[15] row_n[14] row_n[13]
+ row_n[12] row_n[11] row_n[10] row_n[9] row_n[8] row_n[7] row_n[6] row_n[5] row_n[4]
+ row_n[3] row_n[2] row_n[1] row_n[0] rowon_n[15] rowon_n[14] rowon_n[13] rowon_n[12]
+ rowon_n[11] rowon_n[10] rowon_n[9] rowon_n[8] rowon_n[7] rowon_n[6] rowon_n[5] rowon_n[4]
+ rowon_n[3] rowon_n[2] rowon_n[1] rowon_n[0] col_n[31] col_n[30] col_n[29] col_n[28]
+ col_n[27] col_n[26] col_n[25] col_n[24] col_n[23] col_n[22] col_n[21] col_n[20]
+ col_n[19] col_n[18] col_n[17] col_n[16] col_n[15] col_n[14] col_n[13] col_n[12]
+ col_n[11] col_n[10] col_n[9] col_n[8] col_n[7] col_n[6] col_n[5] col_n[4] col_n[3]
+ col_n[2] col_n[1] col_n[0] en_bit_n[2] en_bit_n[1] en_bit_n[0] en_C0_n sw sw_n analog_in
+ ctop
Xadc_array_wafflecap_dummy_5[0] adc_array_wafflecap_8_1[9]/sample_n rowon_n[0] row_n[0]
+ adc_array_wafflecap_8_1[9]/sample vcm VDD adc_array_wafflecap_dummy_5[0]/ctop VDD
+ VSS adc_array_wafflecap_dummy
Xadc_array_wafflecap_dummy_5[1] adc_array_wafflecap_8_0[0|9]/sample_n rowon_n[1] row_n[1]
+ adc_array_wafflecap_8_0[0|9]/sample vcm VDD adc_array_wafflecap_dummy_5[1]/ctop
+ VDD VSS adc_array_wafflecap_dummy
Xadc_array_wafflecap_dummy_5[2] adc_array_wafflecap_8_0[1|9]/sample_n rowon_n[2] row_n[2]
+ adc_array_wafflecap_8_0[1|9]/sample vcm VDD adc_array_wafflecap_dummy_5[2]/ctop
+ VDD VSS adc_array_wafflecap_dummy
Xadc_array_wafflecap_dummy_5[3] adc_array_wafflecap_8_0[2|9]/sample_n rowon_n[3] row_n[3]
+ adc_array_wafflecap_8_0[2|9]/sample vcm VDD adc_array_wafflecap_dummy_5[3]/ctop
+ VDD VSS adc_array_wafflecap_dummy
Xadc_array_wafflecap_dummy_5[4] adc_array_wafflecap_8_0[3|9]/sample_n rowon_n[4] row_n[4]
+ adc_array_wafflecap_8_0[3|9]/sample vcm VDD adc_array_wafflecap_dummy_5[4]/ctop
+ VDD VSS adc_array_wafflecap_dummy
Xadc_array_wafflecap_dummy_5[5] adc_array_wafflecap_8_0[4|9]/sample_n rowon_n[5] row_n[5]
+ adc_array_wafflecap_8_0[4|9]/sample vcm VDD adc_array_wafflecap_dummy_5[5]/ctop
+ VDD VSS adc_array_wafflecap_dummy
Xadc_array_wafflecap_dummy_5[6] adc_array_wafflecap_8_0[5|9]/sample_n rowon_n[6] row_n[6]
+ adc_array_wafflecap_8_0[5|9]/sample vcm VDD adc_array_wafflecap_dummy_5[6]/ctop
+ VDD VSS adc_array_wafflecap_dummy
Xadc_array_wafflecap_dummy_5[7] adc_array_wafflecap_8_0[6|9]/sample_n rowon_n[7] row_n[7]
+ adc_array_wafflecap_8_0[6|9]/sample vcm VDD adc_array_wafflecap_dummy_5[7]/ctop
+ VDD VSS adc_array_wafflecap_dummy
Xadc_array_wafflecap_dummy_5[8] adc_array_wafflecap_8_0[7|9]/sample_n rowon_n[8] row_n[8]
+ adc_array_wafflecap_8_0[7|9]/sample vcm VDD adc_array_wafflecap_dummy_5[8]/ctop
+ VDD VSS adc_array_wafflecap_dummy
Xadc_array_wafflecap_dummy_5[9] adc_array_wafflecap_8_0[8|9]/sample_n rowon_n[9] row_n[9]
+ adc_array_wafflecap_8_0[8|9]/sample vcm VDD adc_array_wafflecap_dummy_5[9]/ctop
+ VDD VSS adc_array_wafflecap_dummy
Xadc_array_wafflecap_dummy_5[10] adc_array_wafflecap_8_0[9|9]/sample_n rowon_n[10]
+ row_n[10] adc_array_wafflecap_8_0[9|9]/sample vcm VDD adc_array_wafflecap_dummy_5[10]/ctop
+ VDD VSS adc_array_wafflecap_dummy
Xadc_array_wafflecap_dummy_5[11] adc_array_wafflecap_8_0[10|9]/sample_n rowon_n[11]
+ row_n[11] adc_array_wafflecap_8_0[10|9]/sample vcm VDD adc_array_wafflecap_dummy_5[11]/ctop
+ VDD VSS adc_array_wafflecap_dummy
Xadc_array_wafflecap_dummy_5[12] adc_array_wafflecap_8_0[11|9]/sample_n rowon_n[12]
+ row_n[12] adc_array_wafflecap_8_0[11|9]/sample vcm VDD adc_array_wafflecap_dummy_5[12]/ctop
+ VDD VSS adc_array_wafflecap_dummy
Xadc_array_wafflecap_dummy_5[13] adc_array_wafflecap_8_0[12|9]/sample_n rowon_n[13]
+ row_n[13] adc_array_wafflecap_8_0[12|9]/sample vcm VDD adc_array_wafflecap_dummy_5[13]/ctop
+ VDD VSS adc_array_wafflecap_dummy
Xadc_array_wafflecap_dummy_5[14] adc_array_wafflecap_8_0[13|9]/sample_n rowon_n[14]
+ row_n[14] adc_array_wafflecap_8_0[13|9]/sample vcm VDD adc_array_wafflecap_dummy_5[14]/ctop
+ VDD VSS adc_array_wafflecap_dummy
Xadc_array_wafflecap_dummy_5[15] adc_array_wafflecap_8_0[14|9]/sample_n rowon_n[15]
+ row_n[15] adc_array_wafflecap_8_0[14|9]/sample vcm VDD adc_array_wafflecap_dummy_5[15]/ctop
+ VDD VSS adc_array_wafflecap_dummy
Xadc_array_wafflecap_dummy_6 VDD VSS VSS VSS vcm VDD adc_array_wafflecap_dummy_6/ctop
+ VDD VSS adc_array_wafflecap_dummy
Xadc_array_wafflecap_dummy_7 adc_array_wafflecap_8_1[9]/sample_n rowon_n[0] row_n[0]
+ adc_array_wafflecap_8_1[9]/sample vcm col_n[0] adc_array_wafflecap_dummy_7/ctop
+ VDD VSS adc_array_wafflecap_dummy
Xadc_array_wafflecap_1_0 VDD VSS VSS VSS vcm col_n[17] en_bit_n[0] ctop VDD VSS adc_array_wafflecap_1
Xadc_array_wafflecap_drv_0[0] adc_array_wafflecap_drv_0[0]/ctop rowon_n[0] row_n[0]
+ vcm VDD sample sample_n adc_array_wafflecap_8_1[9]/sample_n adc_array_wafflecap_8_1[9]/sample
+ VDD VSS adc_array_wafflecap_drv
Xadc_array_wafflecap_drv_0[1] adc_array_wafflecap_drv_0[1]/ctop rowon_n[1] row_n[1]
+ vcm VDD sample sample_n adc_array_wafflecap_8_0[0|9]/sample_n adc_array_wafflecap_8_0[0|9]/sample
+ VDD VSS adc_array_wafflecap_drv
Xadc_array_wafflecap_drv_0[2] adc_array_wafflecap_drv_0[2]/ctop rowon_n[2] row_n[2]
+ vcm VDD sample sample_n adc_array_wafflecap_8_0[1|9]/sample_n adc_array_wafflecap_8_0[1|9]/sample
+ VDD VSS adc_array_wafflecap_drv
Xadc_array_wafflecap_drv_0[3] adc_array_wafflecap_drv_0[3]/ctop rowon_n[3] row_n[3]
+ vcm VDD sample sample_n adc_array_wafflecap_8_0[2|9]/sample_n adc_array_wafflecap_8_0[2|9]/sample
+ VDD VSS adc_array_wafflecap_drv
Xadc_array_wafflecap_drv_0[4] adc_array_wafflecap_drv_0[4]/ctop rowon_n[4] row_n[4]
+ vcm VDD sample sample_n adc_array_wafflecap_8_0[3|9]/sample_n adc_array_wafflecap_8_0[3|9]/sample
+ VDD VSS adc_array_wafflecap_drv
Xadc_array_wafflecap_drv_0[5] adc_array_wafflecap_drv_0[5]/ctop rowon_n[5] row_n[5]
+ vcm VDD sample sample_n adc_array_wafflecap_8_0[4|9]/sample_n adc_array_wafflecap_8_0[4|9]/sample
+ VDD VSS adc_array_wafflecap_drv
Xadc_array_wafflecap_drv_0[6] adc_array_wafflecap_drv_0[6]/ctop rowon_n[6] row_n[6]
+ vcm VDD sample sample_n adc_array_wafflecap_8_0[5|9]/sample_n adc_array_wafflecap_8_0[5|9]/sample
+ VDD VSS adc_array_wafflecap_drv
Xadc_array_wafflecap_drv_0[7] adc_array_wafflecap_drv_0[7]/ctop rowon_n[7] row_n[7]
+ vcm VDD sample sample_n adc_array_wafflecap_8_0[6|9]/sample_n adc_array_wafflecap_8_0[6|9]/sample
+ VDD VSS adc_array_wafflecap_drv
Xadc_array_wafflecap_drv_0[8] adc_array_wafflecap_drv_0[8]/ctop rowon_n[8] row_n[8]
+ vcm VDD sample sample_n adc_array_wafflecap_8_0[7|9]/sample_n adc_array_wafflecap_8_0[7|9]/sample
+ VDD VSS adc_array_wafflecap_drv
Xadc_array_wafflecap_drv_0[9] adc_array_wafflecap_drv_0[9]/ctop rowon_n[9] row_n[9]
+ vcm VDD sample sample_n adc_array_wafflecap_8_0[8|9]/sample_n adc_array_wafflecap_8_0[8|9]/sample
+ VDD VSS adc_array_wafflecap_drv
Xadc_array_wafflecap_drv_0[10] adc_array_wafflecap_drv_0[10]/ctop rowon_n[10] row_n[10]
+ vcm VDD sample sample_n adc_array_wafflecap_8_0[9|9]/sample_n adc_array_wafflecap_8_0[9|9]/sample
+ VDD VSS adc_array_wafflecap_drv
Xadc_array_wafflecap_drv_0[11] adc_array_wafflecap_drv_0[11]/ctop rowon_n[11] row_n[11]
+ vcm VDD sample sample_n adc_array_wafflecap_8_0[10|9]/sample_n adc_array_wafflecap_8_0[10|9]/sample
+ VDD VSS adc_array_wafflecap_drv
Xadc_array_wafflecap_drv_0[12] adc_array_wafflecap_drv_0[12]/ctop rowon_n[12] row_n[12]
+ vcm VDD sample sample_n adc_array_wafflecap_8_0[11|9]/sample_n adc_array_wafflecap_8_0[11|9]/sample
+ VDD VSS adc_array_wafflecap_drv
Xadc_array_wafflecap_drv_0[13] adc_array_wafflecap_drv_0[13]/ctop rowon_n[13] row_n[13]
+ vcm VDD sample sample_n adc_array_wafflecap_8_0[12|9]/sample_n adc_array_wafflecap_8_0[12|9]/sample
+ VDD VSS adc_array_wafflecap_drv
Xadc_array_wafflecap_drv_0[14] adc_array_wafflecap_drv_0[14]/ctop rowon_n[14] row_n[14]
+ vcm VDD sample sample_n adc_array_wafflecap_8_0[13|9]/sample_n adc_array_wafflecap_8_0[13|9]/sample
+ VDD VSS adc_array_wafflecap_drv
Xadc_array_wafflecap_drv_0[15] adc_array_wafflecap_drv_0[15]/ctop rowon_n[15] row_n[15]
+ vcm VDD sample sample_n adc_array_wafflecap_8_0[14|9]/sample_n adc_array_wafflecap_8_0[14|9]/sample
+ VDD VSS adc_array_wafflecap_drv
Xadc_array_wafflecap_1_1 VDD VSS VSS VSS vcm col_n[1] en_C0_n ctop VDD VSS adc_array_wafflecap_1
Xadc_array_wafflecap_8_0[0|0] adc_array_wafflecap_8_0[0|9]/sample_n rowon_n[1] row_n[1]
+ adc_array_wafflecap_8_0[0|9]/sample vcm col_n[0] ctop VDD VSS adc_array_wafflecap_8
Xadc_array_wafflecap_8_0[1|0] adc_array_wafflecap_8_0[1|9]/sample_n rowon_n[2] row_n[2]
+ adc_array_wafflecap_8_0[1|9]/sample vcm col_n[0] ctop VDD VSS adc_array_wafflecap_8
Xadc_array_wafflecap_8_0[2|0] adc_array_wafflecap_8_0[2|9]/sample_n rowon_n[3] row_n[3]
+ adc_array_wafflecap_8_0[2|9]/sample vcm col_n[0] ctop VDD VSS adc_array_wafflecap_8
Xadc_array_wafflecap_8_0[3|0] adc_array_wafflecap_8_0[3|9]/sample_n rowon_n[4] row_n[4]
+ adc_array_wafflecap_8_0[3|9]/sample vcm col_n[0] ctop VDD VSS adc_array_wafflecap_8
Xadc_array_wafflecap_8_0[4|0] adc_array_wafflecap_8_0[4|9]/sample_n rowon_n[5] row_n[5]
+ adc_array_wafflecap_8_0[4|9]/sample vcm col_n[0] ctop VDD VSS adc_array_wafflecap_8
Xadc_array_wafflecap_8_0[5|0] adc_array_wafflecap_8_0[5|9]/sample_n rowon_n[6] row_n[6]
+ adc_array_wafflecap_8_0[5|9]/sample vcm col_n[0] ctop VDD VSS adc_array_wafflecap_8
Xadc_array_wafflecap_8_0[6|0] adc_array_wafflecap_8_0[6|9]/sample_n rowon_n[7] row_n[7]
+ adc_array_wafflecap_8_0[6|9]/sample vcm col_n[0] ctop VDD VSS adc_array_wafflecap_8
Xadc_array_wafflecap_8_0[7|0] adc_array_wafflecap_8_0[7|9]/sample_n rowon_n[8] row_n[8]
+ adc_array_wafflecap_8_0[7|9]/sample vcm col_n[0] ctop VDD VSS adc_array_wafflecap_8
Xadc_array_wafflecap_8_0[8|0] adc_array_wafflecap_8_0[8|9]/sample_n rowon_n[9] row_n[9]
+ adc_array_wafflecap_8_0[8|9]/sample vcm col_n[0] ctop VDD VSS adc_array_wafflecap_8
Xadc_array_wafflecap_8_0[9|0] adc_array_wafflecap_8_0[9|9]/sample_n rowon_n[10] row_n[10]
+ adc_array_wafflecap_8_0[9|9]/sample vcm col_n[0] ctop VDD VSS adc_array_wafflecap_8
Xadc_array_wafflecap_8_0[10|0] adc_array_wafflecap_8_0[10|9]/sample_n rowon_n[11]
+ row_n[11] adc_array_wafflecap_8_0[10|9]/sample vcm col_n[0] ctop VDD VSS adc_array_wafflecap_8
Xadc_array_wafflecap_8_0[11|0] adc_array_wafflecap_8_0[11|9]/sample_n rowon_n[12]
+ row_n[12] adc_array_wafflecap_8_0[11|9]/sample vcm col_n[0] ctop VDD VSS adc_array_wafflecap_8
Xadc_array_wafflecap_8_0[12|0] adc_array_wafflecap_8_0[12|9]/sample_n rowon_n[13]
+ row_n[13] adc_array_wafflecap_8_0[12|9]/sample vcm col_n[0] ctop VDD VSS adc_array_wafflecap_8
Xadc_array_wafflecap_8_0[13|0] adc_array_wafflecap_8_0[13|9]/sample_n rowon_n[14]
+ row_n[14] adc_array_wafflecap_8_0[13|9]/sample vcm col_n[0] ctop VDD VSS adc_array_wafflecap_8
Xadc_array_wafflecap_8_0[14|0] adc_array_wafflecap_8_0[14|9]/sample_n rowon_n[15]
+ row_n[15] adc_array_wafflecap_8_0[14|9]/sample vcm col_n[0] ctop VDD VSS adc_array_wafflecap_8
Xadc_array_wafflecap_8_0[0|1] adc_array_wafflecap_8_0[0|9]/sample_n rowon_n[1] row_n[1]
+ adc_array_wafflecap_8_0[0|9]/sample vcm col_n[1] ctop VDD VSS adc_array_wafflecap_8
Xadc_array_wafflecap_8_0[1|1] adc_array_wafflecap_8_0[1|9]/sample_n rowon_n[2] row_n[2]
+ adc_array_wafflecap_8_0[1|9]/sample vcm col_n[1] ctop VDD VSS adc_array_wafflecap_8
Xadc_array_wafflecap_8_0[2|1] adc_array_wafflecap_8_0[2|9]/sample_n rowon_n[3] row_n[3]
+ adc_array_wafflecap_8_0[2|9]/sample vcm col_n[1] ctop VDD VSS adc_array_wafflecap_8
Xadc_array_wafflecap_8_0[3|1] adc_array_wafflecap_8_0[3|9]/sample_n rowon_n[4] row_n[4]
+ adc_array_wafflecap_8_0[3|9]/sample vcm col_n[1] ctop VDD VSS adc_array_wafflecap_8
Xadc_array_wafflecap_8_0[4|1] adc_array_wafflecap_8_0[4|9]/sample_n rowon_n[5] row_n[5]
+ adc_array_wafflecap_8_0[4|9]/sample vcm col_n[1] ctop VDD VSS adc_array_wafflecap_8
Xadc_array_wafflecap_8_0[5|1] adc_array_wafflecap_8_0[5|9]/sample_n rowon_n[6] row_n[6]
+ adc_array_wafflecap_8_0[5|9]/sample vcm col_n[1] ctop VDD VSS adc_array_wafflecap_8
Xadc_array_wafflecap_8_0[6|1] adc_array_wafflecap_8_0[6|9]/sample_n rowon_n[7] row_n[7]
+ adc_array_wafflecap_8_0[6|9]/sample vcm col_n[1] ctop VDD VSS adc_array_wafflecap_8
Xadc_array_wafflecap_8_0[7|1] adc_array_wafflecap_8_0[7|9]/sample_n rowon_n[8] row_n[8]
+ adc_array_wafflecap_8_0[7|9]/sample vcm col_n[1] ctop VDD VSS adc_array_wafflecap_8
Xadc_array_wafflecap_8_0[8|1] adc_array_wafflecap_8_0[8|9]/sample_n rowon_n[9] row_n[9]
+ adc_array_wafflecap_8_0[8|9]/sample vcm col_n[1] ctop VDD VSS adc_array_wafflecap_8
Xadc_array_wafflecap_8_0[9|1] adc_array_wafflecap_8_0[9|9]/sample_n rowon_n[10] row_n[10]
+ adc_array_wafflecap_8_0[9|9]/sample vcm col_n[1] ctop VDD VSS adc_array_wafflecap_8
Xadc_array_wafflecap_8_0[10|1] adc_array_wafflecap_8_0[10|9]/sample_n rowon_n[11]
+ row_n[11] adc_array_wafflecap_8_0[10|9]/sample vcm col_n[1] ctop VDD VSS adc_array_wafflecap_8
Xadc_array_wafflecap_8_0[11|1] adc_array_wafflecap_8_0[11|9]/sample_n rowon_n[12]
+ row_n[12] adc_array_wafflecap_8_0[11|9]/sample vcm col_n[1] ctop VDD VSS adc_array_wafflecap_8
Xadc_array_wafflecap_8_0[12|1] adc_array_wafflecap_8_0[12|9]/sample_n rowon_n[13]
+ row_n[13] adc_array_wafflecap_8_0[12|9]/sample vcm col_n[1] ctop VDD VSS adc_array_wafflecap_8
Xadc_array_wafflecap_8_0[13|1] adc_array_wafflecap_8_0[13|9]/sample_n rowon_n[14]
+ row_n[14] adc_array_wafflecap_8_0[13|9]/sample vcm col_n[1] ctop VDD VSS adc_array_wafflecap_8
Xadc_array_wafflecap_8_0[14|1] adc_array_wafflecap_8_0[14|9]/sample_n rowon_n[15]
+ row_n[15] adc_array_wafflecap_8_0[14|9]/sample vcm col_n[1] ctop VDD VSS adc_array_wafflecap_8
Xadc_array_wafflecap_8_0[0|2] adc_array_wafflecap_8_0[0|9]/sample_n rowon_n[1] row_n[1]
+ adc_array_wafflecap_8_0[0|9]/sample vcm col_n[2] ctop VDD VSS adc_array_wafflecap_8
Xadc_array_wafflecap_8_0[1|2] adc_array_wafflecap_8_0[1|9]/sample_n rowon_n[2] row_n[2]
+ adc_array_wafflecap_8_0[1|9]/sample vcm col_n[2] ctop VDD VSS adc_array_wafflecap_8
Xadc_array_wafflecap_8_0[2|2] adc_array_wafflecap_8_0[2|9]/sample_n rowon_n[3] row_n[3]
+ adc_array_wafflecap_8_0[2|9]/sample vcm col_n[2] ctop VDD VSS adc_array_wafflecap_8
Xadc_array_wafflecap_8_0[3|2] adc_array_wafflecap_8_0[3|9]/sample_n rowon_n[4] row_n[4]
+ adc_array_wafflecap_8_0[3|9]/sample vcm col_n[2] ctop VDD VSS adc_array_wafflecap_8
Xadc_array_wafflecap_8_0[4|2] adc_array_wafflecap_8_0[4|9]/sample_n rowon_n[5] row_n[5]
+ adc_array_wafflecap_8_0[4|9]/sample vcm col_n[2] ctop VDD VSS adc_array_wafflecap_8
Xadc_array_wafflecap_8_0[5|2] adc_array_wafflecap_8_0[5|9]/sample_n rowon_n[6] row_n[6]
+ adc_array_wafflecap_8_0[5|9]/sample vcm col_n[2] ctop VDD VSS adc_array_wafflecap_8
Xadc_array_wafflecap_8_0[6|2] adc_array_wafflecap_8_0[6|9]/sample_n rowon_n[7] row_n[7]
+ adc_array_wafflecap_8_0[6|9]/sample vcm col_n[2] ctop VDD VSS adc_array_wafflecap_8
Xadc_array_wafflecap_8_0[7|2] adc_array_wafflecap_8_0[7|9]/sample_n rowon_n[8] row_n[8]
+ adc_array_wafflecap_8_0[7|9]/sample vcm col_n[2] ctop VDD VSS adc_array_wafflecap_8
Xadc_array_wafflecap_8_0[8|2] adc_array_wafflecap_8_0[8|9]/sample_n rowon_n[9] row_n[9]
+ adc_array_wafflecap_8_0[8|9]/sample vcm col_n[2] ctop VDD VSS adc_array_wafflecap_8
Xadc_array_wafflecap_8_0[9|2] adc_array_wafflecap_8_0[9|9]/sample_n rowon_n[10] row_n[10]
+ adc_array_wafflecap_8_0[9|9]/sample vcm col_n[2] ctop VDD VSS adc_array_wafflecap_8
Xadc_array_wafflecap_8_0[10|2] adc_array_wafflecap_8_0[10|9]/sample_n rowon_n[11]
+ row_n[11] adc_array_wafflecap_8_0[10|9]/sample vcm col_n[2] ctop VDD VSS adc_array_wafflecap_8
Xadc_array_wafflecap_8_0[11|2] adc_array_wafflecap_8_0[11|9]/sample_n rowon_n[12]
+ row_n[12] adc_array_wafflecap_8_0[11|9]/sample vcm col_n[2] ctop VDD VSS adc_array_wafflecap_8
Xadc_array_wafflecap_8_0[12|2] adc_array_wafflecap_8_0[12|9]/sample_n rowon_n[13]
+ row_n[13] adc_array_wafflecap_8_0[12|9]/sample vcm col_n[2] ctop VDD VSS adc_array_wafflecap_8
Xadc_array_wafflecap_8_0[13|2] adc_array_wafflecap_8_0[13|9]/sample_n rowon_n[14]
+ row_n[14] adc_array_wafflecap_8_0[13|9]/sample vcm col_n[2] ctop VDD VSS adc_array_wafflecap_8
Xadc_array_wafflecap_8_0[14|2] adc_array_wafflecap_8_0[14|9]/sample_n rowon_n[15]
+ row_n[15] adc_array_wafflecap_8_0[14|9]/sample vcm col_n[2] ctop VDD VSS adc_array_wafflecap_8
Xadc_array_wafflecap_8_0[0|3] adc_array_wafflecap_8_0[0|9]/sample_n rowon_n[1] row_n[1]
+ adc_array_wafflecap_8_0[0|9]/sample vcm col_n[3] ctop VDD VSS adc_array_wafflecap_8
Xadc_array_wafflecap_8_0[1|3] adc_array_wafflecap_8_0[1|9]/sample_n rowon_n[2] row_n[2]
+ adc_array_wafflecap_8_0[1|9]/sample vcm col_n[3] ctop VDD VSS adc_array_wafflecap_8
Xadc_array_wafflecap_8_0[2|3] adc_array_wafflecap_8_0[2|9]/sample_n rowon_n[3] row_n[3]
+ adc_array_wafflecap_8_0[2|9]/sample vcm col_n[3] ctop VDD VSS adc_array_wafflecap_8
Xadc_array_wafflecap_8_0[3|3] adc_array_wafflecap_8_0[3|9]/sample_n rowon_n[4] row_n[4]
+ adc_array_wafflecap_8_0[3|9]/sample vcm col_n[3] ctop VDD VSS adc_array_wafflecap_8
Xadc_array_wafflecap_8_0[4|3] adc_array_wafflecap_8_0[4|9]/sample_n rowon_n[5] row_n[5]
+ adc_array_wafflecap_8_0[4|9]/sample vcm col_n[3] ctop VDD VSS adc_array_wafflecap_8
Xadc_array_wafflecap_8_0[5|3] adc_array_wafflecap_8_0[5|9]/sample_n rowon_n[6] row_n[6]
+ adc_array_wafflecap_8_0[5|9]/sample vcm col_n[3] ctop VDD VSS adc_array_wafflecap_8
Xadc_array_wafflecap_8_0[6|3] adc_array_wafflecap_8_0[6|9]/sample_n rowon_n[7] row_n[7]
+ adc_array_wafflecap_8_0[6|9]/sample vcm col_n[3] ctop VDD VSS adc_array_wafflecap_8
Xadc_array_wafflecap_8_0[7|3] adc_array_wafflecap_8_0[7|9]/sample_n rowon_n[8] row_n[8]
+ adc_array_wafflecap_8_0[7|9]/sample vcm col_n[3] ctop VDD VSS adc_array_wafflecap_8
Xadc_array_wafflecap_8_0[8|3] adc_array_wafflecap_8_0[8|9]/sample_n rowon_n[9] row_n[9]
+ adc_array_wafflecap_8_0[8|9]/sample vcm col_n[3] ctop VDD VSS adc_array_wafflecap_8
Xadc_array_wafflecap_8_0[9|3] adc_array_wafflecap_8_0[9|9]/sample_n rowon_n[10] row_n[10]
+ adc_array_wafflecap_8_0[9|9]/sample vcm col_n[3] ctop VDD VSS adc_array_wafflecap_8
Xadc_array_wafflecap_8_0[10|3] adc_array_wafflecap_8_0[10|9]/sample_n rowon_n[11]
+ row_n[11] adc_array_wafflecap_8_0[10|9]/sample vcm col_n[3] ctop VDD VSS adc_array_wafflecap_8
Xadc_array_wafflecap_8_0[11|3] adc_array_wafflecap_8_0[11|9]/sample_n rowon_n[12]
+ row_n[12] adc_array_wafflecap_8_0[11|9]/sample vcm col_n[3] ctop VDD VSS adc_array_wafflecap_8
Xadc_array_wafflecap_8_0[12|3] adc_array_wafflecap_8_0[12|9]/sample_n rowon_n[13]
+ row_n[13] adc_array_wafflecap_8_0[12|9]/sample vcm col_n[3] ctop VDD VSS adc_array_wafflecap_8
Xadc_array_wafflecap_8_0[13|3] adc_array_wafflecap_8_0[13|9]/sample_n rowon_n[14]
+ row_n[14] adc_array_wafflecap_8_0[13|9]/sample vcm col_n[3] ctop VDD VSS adc_array_wafflecap_8
Xadc_array_wafflecap_8_0[14|3] adc_array_wafflecap_8_0[14|9]/sample_n rowon_n[15]
+ row_n[15] adc_array_wafflecap_8_0[14|9]/sample vcm col_n[3] ctop VDD VSS adc_array_wafflecap_8
Xadc_array_wafflecap_8_0[0|4] adc_array_wafflecap_8_0[0|9]/sample_n rowon_n[1] row_n[1]
+ adc_array_wafflecap_8_0[0|9]/sample vcm col_n[4] ctop VDD VSS adc_array_wafflecap_8
Xadc_array_wafflecap_8_0[1|4] adc_array_wafflecap_8_0[1|9]/sample_n rowon_n[2] row_n[2]
+ adc_array_wafflecap_8_0[1|9]/sample vcm col_n[4] ctop VDD VSS adc_array_wafflecap_8
Xadc_array_wafflecap_8_0[2|4] adc_array_wafflecap_8_0[2|9]/sample_n rowon_n[3] row_n[3]
+ adc_array_wafflecap_8_0[2|9]/sample vcm col_n[4] ctop VDD VSS adc_array_wafflecap_8
Xadc_array_wafflecap_8_0[3|4] adc_array_wafflecap_8_0[3|9]/sample_n rowon_n[4] row_n[4]
+ adc_array_wafflecap_8_0[3|9]/sample vcm col_n[4] ctop VDD VSS adc_array_wafflecap_8
Xadc_array_wafflecap_8_0[4|4] adc_array_wafflecap_8_0[4|9]/sample_n rowon_n[5] row_n[5]
+ adc_array_wafflecap_8_0[4|9]/sample vcm col_n[4] ctop VDD VSS adc_array_wafflecap_8
Xadc_array_wafflecap_8_0[5|4] adc_array_wafflecap_8_0[5|9]/sample_n rowon_n[6] row_n[6]
+ adc_array_wafflecap_8_0[5|9]/sample vcm col_n[4] ctop VDD VSS adc_array_wafflecap_8
Xadc_array_wafflecap_8_0[6|4] adc_array_wafflecap_8_0[6|9]/sample_n rowon_n[7] row_n[7]
+ adc_array_wafflecap_8_0[6|9]/sample vcm col_n[4] ctop VDD VSS adc_array_wafflecap_8
Xadc_array_wafflecap_8_0[7|4] adc_array_wafflecap_8_0[7|9]/sample_n rowon_n[8] row_n[8]
+ adc_array_wafflecap_8_0[7|9]/sample vcm col_n[4] ctop VDD VSS adc_array_wafflecap_8
Xadc_array_wafflecap_8_0[8|4] adc_array_wafflecap_8_0[8|9]/sample_n rowon_n[9] row_n[9]
+ adc_array_wafflecap_8_0[8|9]/sample vcm col_n[4] ctop VDD VSS adc_array_wafflecap_8
Xadc_array_wafflecap_8_0[9|4] adc_array_wafflecap_8_0[9|9]/sample_n rowon_n[10] row_n[10]
+ adc_array_wafflecap_8_0[9|9]/sample vcm col_n[4] ctop VDD VSS adc_array_wafflecap_8
Xadc_array_wafflecap_8_0[10|4] adc_array_wafflecap_8_0[10|9]/sample_n rowon_n[11]
+ row_n[11] adc_array_wafflecap_8_0[10|9]/sample vcm col_n[4] ctop VDD VSS adc_array_wafflecap_8
Xadc_array_wafflecap_8_0[11|4] adc_array_wafflecap_8_0[11|9]/sample_n rowon_n[12]
+ row_n[12] adc_array_wafflecap_8_0[11|9]/sample vcm col_n[4] ctop VDD VSS adc_array_wafflecap_8
Xadc_array_wafflecap_8_0[12|4] adc_array_wafflecap_8_0[12|9]/sample_n rowon_n[13]
+ row_n[13] adc_array_wafflecap_8_0[12|9]/sample vcm col_n[4] ctop VDD VSS adc_array_wafflecap_8