* NGSPICE file created from adc_array_matrix_12bit.ext - technology: sky130A

.subckt adc_array_wafflecap_dummy vcom ctop col row_n rowon_n sample sample_n off_n
+ a_608_480# VDD VSS
X0 VDD rowon_n a_170_212# VDD sky130_fd_pr__pfet_01v8 ad=2.64e+11p pd=2.26e+06u as=7.44e+11p ps=6.66e+06u w=800000u l=150000u
X1 a_662_574# a_608_480# VDD VDD sky130_fd_pr__pfet_01v8 ad=2.64e+11p pd=2.26e+06u as=0p ps=0u w=800000u l=150000u
X2 a_170_212# row_n a_662_574# VDD sky130_fd_pr__pfet_01v8 ad=0p pd=0u as=0p ps=0u w=800000u l=150000u
X3 a_566_252# rowon_n a_170_212# VSS sky130_fd_pr__nfet_01v8 ad=2.688e+11p pd=2.96e+06u as=2.604e+11p ps=2.92e+06u w=420000u l=150000u
X4 VSS row_n a_566_252# VSS sky130_fd_pr__nfet_01v8 ad=1.386e+11p pd=1.5e+06u as=0p ps=0u w=420000u l=150000u
X5 a_566_252# a_608_480# VSS VSS sky130_fd_pr__nfet_01v8 ad=0p pd=0u as=0p ps=0u w=420000u l=150000u
X6 a_262_212# sample_n vcom VDD sky130_fd_pr__pfet_01v8 ad=2.64e+11p pd=2.26e+06u as=2.48e+11p ps=2.22e+06u w=800000u l=150000u
X7 a_170_212# sample a_262_212# VDD sky130_fd_pr__pfet_01v8 ad=0p pd=0u as=0p ps=0u w=800000u l=150000u
X8 a_262_212# sample_n a_170_212# VSS sky130_fd_pr__nfet_01v8 ad=1.386e+11p pd=1.5e+06u as=0p ps=0u w=420000u l=150000u
X9 vcom sample a_262_212# VSS sky130_fd_pr__nfet_01v8 ad=1.302e+11p pd=1.46e+06u as=0p ps=0u w=420000u l=150000u
.ends

.subckt adc_array_wafflecap_drv vcom ctop col col_n row_n rowon_n sample_i sample_o
+ sample_n_i sample_n_o off_n VDD VSS
X0 a_461_236# sample_i VDD VDD sky130_fd_pr__pfet_01v8 ad=3.42e+11p pd=2.97e+06u as=8.4e+11p ps=6.2e+06u w=1.2e+06u l=150000u
X1 sample_n_o a_257_236# VSS VSS sky130_fd_pr__nfet_01v8 ad=1.71e+11p pd=1.77e+06u as=4.2e+11p ps=3.8e+06u w=600000u l=150000u
X2 VSS a_461_236# sample_o VSS sky130_fd_pr__nfet_01v8 ad=0p pd=0u as=1.71e+11p ps=1.77e+06u w=600000u l=150000u
X3 a_257_236# VDD sample_i VSS sky130_fd_pr__nfet_01v8 ad=1.71e+11p pd=1.77e+06u as=1.71e+11p ps=1.77e+06u w=600000u l=150000u
X4 sample_n_o a_257_236# VDD VDD sky130_fd_pr__pfet_01v8 ad=3.42e+11p pd=2.97e+06u as=0p ps=0u w=1.2e+06u l=150000u
X5 a_461_236# sample_i VSS VSS sky130_fd_pr__nfet_01v8 ad=1.71e+11p pd=1.77e+06u as=0p ps=0u w=600000u l=150000u
X6 VDD a_461_236# sample_o VDD sky130_fd_pr__pfet_01v8 ad=0p pd=0u as=3.42e+11p ps=2.97e+06u w=1.2e+06u l=150000u
X7 a_257_236# VSS sample_i VDD sky130_fd_pr__pfet_01v8 ad=3.42e+11p pd=2.97e+06u as=3.42e+11p ps=2.97e+06u w=1.2e+06u l=150000u
.ends

.subckt adc_array_wafflecap_1 vcom ctop col row_n rowon_n sample sample_n off_n a_482_57#
+ li_856_108# VDD VSS
X0 VDD a_482_57# a_170_212# VDD sky130_fd_pr__pfet_01v8 ad=2.64e+11p pd=2.26e+06u as=7.44e+11p ps=6.66e+06u w=800000u l=150000u
X1 a_662_574# a_482_57# VDD VDD sky130_fd_pr__pfet_01v8 ad=2.64e+11p pd=2.26e+06u as=0p ps=0u w=800000u l=150000u
X2 a_170_212# a_482_57# a_662_574# VDD sky130_fd_pr__pfet_01v8 ad=0p pd=0u as=0p ps=0u w=800000u l=150000u
X3 a_566_252# a_482_57# a_170_212# VSS sky130_fd_pr__nfet_01v8 ad=2.688e+11p pd=2.96e+06u as=2.604e+11p ps=2.92e+06u w=420000u l=150000u
X4 VSS a_482_57# a_566_252# VSS sky130_fd_pr__nfet_01v8 ad=1.386e+11p pd=1.5e+06u as=0p ps=0u w=420000u l=150000u
X5 a_566_252# a_482_57# VSS VSS sky130_fd_pr__nfet_01v8 ad=0p pd=0u as=0p ps=0u w=420000u l=150000u
X6 cbot sample_n vcom VDD sky130_fd_pr__pfet_01v8 ad=2.64e+11p pd=2.26e+06u as=2.48e+11p ps=2.22e+06u w=800000u l=150000u
X7 a_170_212# sample cbot VDD sky130_fd_pr__pfet_01v8 ad=0p pd=0u as=0p ps=0u w=800000u l=150000u
X8 cbot sample_n a_170_212# VSS sky130_fd_pr__nfet_01v8 ad=1.386e+11p pd=1.5e+06u as=0p ps=0u w=420000u l=150000u
X9 vcom sample cbot VSS sky130_fd_pr__nfet_01v8 ad=1.302e+11p pd=1.46e+06u as=0p ps=0u w=420000u l=150000u
C0 ctop cbot 0.36fF
.ends

.subckt adc_array_wafflecap_8 vcom ctop col row_n rowon_n sample sample_n off_n a_608_480#
+ VDD VSS
X0 VDD rowon_n a_170_212# VDD sky130_fd_pr__pfet_01v8 ad=2.64e+11p pd=2.26e+06u as=7.44e+11p ps=6.66e+06u w=800000u l=150000u
X1 a_662_574# a_608_480# VDD VDD sky130_fd_pr__pfet_01v8 ad=2.64e+11p pd=2.26e+06u as=0p ps=0u w=800000u l=150000u
X2 a_170_212# row_n a_662_574# VDD sky130_fd_pr__pfet_01v8 ad=0p pd=0u as=0p ps=0u w=800000u l=150000u
X3 a_566_252# rowon_n a_170_212# VSS sky130_fd_pr__nfet_01v8 ad=2.688e+11p pd=2.96e+06u as=2.604e+11p ps=2.92e+06u w=420000u l=150000u
X4 VSS row_n a_566_252# VSS sky130_fd_pr__nfet_01v8 ad=1.386e+11p pd=1.5e+06u as=0p ps=0u w=420000u l=150000u
X5 a_566_252# a_608_480# VSS VSS sky130_fd_pr__nfet_01v8 ad=0p pd=0u as=0p ps=0u w=420000u l=150000u
X6 cbot sample_n vcom VDD sky130_fd_pr__pfet_01v8 ad=2.64e+11p pd=2.26e+06u as=2.48e+11p ps=2.22e+06u w=800000u l=150000u
X7 a_170_212# sample cbot VDD sky130_fd_pr__pfet_01v8 ad=0p pd=0u as=0p ps=0u w=800000u l=150000u
X8 cbot sample_n a_170_212# VSS sky130_fd_pr__nfet_01v8 ad=1.386e+11p pd=1.5e+06u as=0p ps=0u w=420000u l=150000u
X9 vcom sample cbot VSS sky130_fd_pr__nfet_01v8 ad=1.302e+11p pd=1.46e+06u as=0p ps=0u w=420000u l=150000u
C2 ctop cbot 2.89fF
.ends

.subckt adc_noise_decoup_cell1 nmoscap_top nmoscap_bot mimcap_top mimcap_bot pwell
X0 mimcap_top mimcap_bot sky130_fd_pr__cap_mim_m3_1 l=1.72e+07u w=1.72e+07u
X1 nmoscap_bot nmoscap_top nmoscap_bot pwell sky130_fd_pr__nfet_01v8 ad=2.296e+13p pd=6.84e+07u as=0p ps=0u w=1.64e+07u l=1.6e+07u
.ends

.subckt adc_array_wafflecap_4 vcom ctop col row_n rowon_n sample sample_n off_n a_482_57#
+ li_856_108# VDD VSS
X0 VDD a_482_57# a_170_212# VDD sky130_fd_pr__pfet_01v8 ad=2.64e+11p pd=2.26e+06u as=7.44e+11p ps=6.66e+06u w=800000u l=150000u
X1 a_662_574# a_482_57# VDD VDD sky130_fd_pr__pfet_01v8 ad=2.64e+11p pd=2.26e+06u as=0p ps=0u w=800000u l=150000u
X2 a_170_212# a_482_57# a_662_574# VDD sky130_fd_pr__pfet_01v8 ad=0p pd=0u as=0p ps=0u w=800000u l=150000u
X3 a_566_252# a_482_57# a_170_212# VSS sky130_fd_pr__nfet_01v8 ad=2.688e+11p pd=2.96e+06u as=2.604e+11p ps=2.92e+06u w=420000u l=150000u
X4 VSS a_482_57# a_566_252# VSS sky130_fd_pr__nfet_01v8 ad=1.386e+11p pd=1.5e+06u as=0p ps=0u w=420000u l=150000u
X5 a_566_252# a_482_57# VSS VSS sky130_fd_pr__nfet_01v8 ad=0p pd=0u as=0p ps=0u w=420000u l=150000u
X6 cbot sample_n vcom VDD sky130_fd_pr__pfet_01v8 ad=2.64e+11p pd=2.26e+06u as=2.48e+11p ps=2.22e+06u w=800000u l=150000u
X7 a_170_212# sample cbot VDD sky130_fd_pr__pfet_01v8 ad=0p pd=0u as=0p ps=0u w=800000u l=150000u
X8 cbot sample_n a_170_212# VSS sky130_fd_pr__nfet_01v8 ad=1.386e+11p pd=1.5e+06u as=0p ps=0u w=420000u l=150000u
X9 vcom sample cbot VSS sky130_fd_pr__nfet_01v8 ad=1.302e+11p pd=1.46e+06u as=0p ps=0u w=420000u l=150000u
C9 ctop cbot 1.46fF
.ends

.subckt adc_array_wafflecap_2 vcom ctop col row_n rowon_n sample sample_n off_n a_482_57#
+ li_856_108# VDD VSS
X0 VDD a_482_57# a_170_212# VDD sky130_fd_pr__pfet_01v8 ad=2.64e+11p pd=2.26e+06u as=7.44e+11p ps=6.66e+06u w=800000u l=150000u
X1 a_662_574# a_482_57# VDD VDD sky130_fd_pr__pfet_01v8 ad=2.64e+11p pd=2.26e+06u as=0p ps=0u w=800000u l=150000u
X2 a_170_212# a_482_57# a_662_574# VDD sky130_fd_pr__pfet_01v8 ad=0p pd=0u as=0p ps=0u w=800000u l=150000u
X3 a_566_252# a_482_57# a_170_212# VSS sky130_fd_pr__nfet_01v8 ad=2.688e+11p pd=2.96e+06u as=2.604e+11p ps=2.92e+06u w=420000u l=150000u
X4 VSS a_482_57# a_566_252# VSS sky130_fd_pr__nfet_01v8 ad=1.386e+11p pd=1.5e+06u as=0p ps=0u w=420000u l=150000u
X5 a_566_252# a_482_57# VSS VSS sky130_fd_pr__nfet_01v8 ad=0p pd=0u as=0p ps=0u w=420000u l=150000u
X6 cbot sample_n vcom VDD sky130_fd_pr__pfet_01v8 ad=2.64e+11p pd=2.26e+06u as=2.48e+11p ps=2.22e+06u w=800000u l=150000u
X7 a_170_212# sample cbot VDD sky130_fd_pr__pfet_01v8 ad=0p pd=0u as=0p ps=0u w=800000u l=150000u
X8 cbot sample_n a_170_212# VSS sky130_fd_pr__nfet_01v8 ad=1.386e+11p pd=1.5e+06u as=0p ps=0u w=420000u l=150000u
X9 vcom sample cbot VSS sky130_fd_pr__nfet_01v8 ad=1.302e+11p pd=1.46e+06u as=0p ps=0u w=420000u l=150000u
C7 ctop cbot 0.72fF
.ends

.subckt adc_array_wafflecap_gate vcom ctop col col_n row_n rowon_n sample sample_n
+ off_n analog_in sw sw_n li_854_0# VDD VSS
X0 ctop sw_n analog_in VDD sky130_fd_pr__pfet_01v8 ad=2.7075e+12p pd=2.185e+07u as=1.102e+12p ps=8.76e+06u w=1.9e+06u l=220000u
X1 analog_in sw ctop VSS sky130_fd_pr__nfet_01v8 ad=1.102e+12p pd=8.76e+06u as=2.7645e+12p ps=2.191e+07u w=1.9e+06u l=220000u
X2 analog_in sw_n ctop VDD sky130_fd_pr__pfet_01v8 ad=0p pd=0u as=0p ps=0u w=1.9e+06u l=220000u
X3 ctop sw_n analog_in VDD sky130_fd_pr__pfet_01v8 ad=0p pd=0u as=0p ps=0u w=1.9e+06u l=220000u
X4 ctop sw_n ctop VSS sky130_fd_pr__nfet_01v8 ad=0p pd=0u as=0p ps=0u w=1.9e+06u l=220000u
X5 ctop sw analog_in VSS sky130_fd_pr__nfet_01v8 ad=0p pd=0u as=0p ps=0u w=1.9e+06u l=220000u
X6 ctop sw analog_in VSS sky130_fd_pr__nfet_01v8 ad=0p pd=0u as=0p ps=0u w=1.9e+06u l=220000u
X7 ctop sw ctop VDD sky130_fd_pr__pfet_01v8 ad=0p pd=0u as=0p ps=0u w=1.9e+06u l=220000u
X8 analog_in sw ctop VSS sky130_fd_pr__nfet_01v8 ad=0p pd=0u as=0p ps=0u w=1.9e+06u l=220000u
X9 ctop sw ctop VDD sky130_fd_pr__pfet_01v8 ad=0p pd=0u as=0p ps=0u w=1.9e+06u l=220000u
X10 ctop sw_n ctop VSS sky130_fd_pr__nfet_01v8 ad=0p pd=0u as=0p ps=0u w=1.9e+06u l=220000u
X11 analog_in sw_n ctop VDD sky130_fd_pr__pfet_01v8 ad=0p pd=0u as=0p ps=0u w=1.9e+06u l=220000u
.ends

.subckt adc_array_matrix_12bit VDD VSS vcm sample sample_n col_n[31] col_n[30] col_n[29]
+ col_n[28] col_n[27] col_n[26] col_n[25] col_n[24] col_n[23] col_n[22] col_n[21]
+ col_n[20] col_n[19] col_n[18] col_n[17] col_n[16] col_n[15] col_n[14] col_n[13]
+ col_n[12] col_n[11] col_n[10] col_n[9] col_n[8] col_n[7] col_n[6] col_n[5] col_n[4]
+ col_n[3] col_n[2] col_n[1] col_n[0] en_bit_n[2] en_bit_n[1] en_bit_n[0] en_C0_n
+ sw sw_n ctop analog_in col[0] col[1] col[2] col[3] col[4] col[5] col[6] col[7] col[8]
+ col[9] col[10] col[11] col[12] col[13] col[14] col[15] col[16] col[17] col[18] col[19]
+ col[20] col[21] col[22] col[23] col[24] col[25] col[26] col[27] col[28] col[29]
+ col[30] col[31] row_n[0] row_n[1] row_n[2] row_n[3] row_n[4] row_n[5] row_n[6] row_n[7]
+ row_n[8] row_n[9] row_n[10] row_n[11] row_n[12] row_n[13] row_n[14] row_n[15] rowon_n[0]
+ rowon_n[1] rowon_n[2] rowon_n[3] rowon_n[4] rowon_n[5] rowon_n[6] rowon_n[7] rowon_n[8]
+ rowon_n[9] rowon_n[10] rowon_n[11] rowon_n[12] rowon_n[13] rowon_n[14] rowon_n[15]
+ rowoff_n[0] rowoff_n[1] rowoff_n[2] rowoff_n[3] rowoff_n[4] rowoff_n[5] rowoff_n[6]
+ rowoff_n[7] rowoff_n[8] rowoff_n[9] rowoff_n[10] rowoff_n[11] rowoff_n[12] rowoff_n[13]
+ rowoff_n[14] rowoff_n[15]
Xadc_array_wafflecap_dummy_5[0] vcm adc_array_wafflecap_dummy_5[0]/ctop VSS row_n[0]
+ rowon_n[0] adc_array_wafflecap_8_1[9]/sample adc_array_wafflecap_8_1[9]/sample_n
+ rowoff_n[0] VDD VDD VSS adc_array_wafflecap_dummy
Xadc_array_wafflecap_dummy_5[1] vcm adc_array_wafflecap_dummy_5[1]/ctop VSS row_n[1]
+ rowon_n[1] adc_array_wafflecap_8_2[0|9]/sample adc_array_wafflecap_8_2[0|9]/sample_n
+ rowoff_n[1] VDD VDD VSS adc_array_wafflecap_dummy
Xadc_array_wafflecap_dummy_5[2] vcm adc_array_wafflecap_dummy_5[2]/ctop VSS row_n[2]
+ rowon_n[2] adc_array_wafflecap_8_2[1|9]/sample adc_array_wafflecap_8_2[1|9]/sample_n
+ rowoff_n[2] VDD VDD VSS adc_array_wafflecap_dummy
Xadc_array_wafflecap_dummy_5[3] vcm adc_array_wafflecap_dummy_5[3]/ctop VSS row_n[3]
+ rowon_n[3] adc_array_wafflecap_8_2[2|9]/sample adc_array_wafflecap_8_2[2|9]/sample_n
+ rowoff_n[3] VDD VDD VSS adc_array_wafflecap_dummy
Xadc_array_wafflecap_dummy_5[4] vcm adc_array_wafflecap_dummy_5[4]/ctop VSS row_n[4]
+ rowon_n[4] adc_array_wafflecap_8_2[3|9]/sample adc_array_wafflecap_8_2[3|9]/sample_n
+ rowoff_n[4] VDD VDD VSS adc_array_wafflecap_dummy
Xadc_array_wafflecap_dummy_5[5] vcm adc_array_wafflecap_dummy_5[5]/ctop VSS row_n[5]
+ rowon_n[5] adc_array_wafflecap_8_2[4|9]/sample adc_array_wafflecap_8_2[4|9]/sample_n
+ rowoff_n[5] VDD VDD VSS adc_array_wafflecap_dummy
Xadc_array_wafflecap_dummy_5[6] vcm adc_array_wafflecap_dummy_5[6]/ctop VSS row_n[6]
+ rowon_n[6] adc_array_wafflecap_8_2[5|9]/sample adc_array_wafflecap_8_2[5|9]/sample_n
+ rowoff_n[6] VDD VDD VSS adc_array_wafflecap_dummy
Xadc_array_wafflecap_dummy_5[7] vcm adc_array_wafflecap_dummy_5[7]/ctop VSS row_n[7]
+ rowon_n[7] adc_array_wafflecap_8_2[6|9]/sample adc_array_wafflecap_8_2[6|9]/sample_n
+ rowoff_n[7] VDD VDD VSS adc_array_wafflecap_dummy
Xadc_array_wafflecap_dummy_5[8] vcm adc_array_wafflecap_dummy_5[8]/ctop VSS row_n[8]
+ rowon_n[8] adc_array_wafflecap_8_2[7|9]/sample adc_array_wafflecap_8_2[7|9]/sample_n
+ rowoff_n[8] VDD VDD VSS adc_array_wafflecap_dummy
Xadc_array_wafflecap_dummy_5[9] vcm adc_array_wafflecap_dummy_5[9]/ctop VSS row_n[9]
+ rowon_n[9] adc_array_wafflecap_8_2[8|9]/sample adc_array_wafflecap_8_2[8|9]/sample_n
+ rowoff_n[9] VDD VDD VSS adc_array_wafflecap_dummy
Xadc_array_wafflecap_dummy_5[10] vcm adc_array_wafflecap_dummy_5[10]/ctop VSS row_n[10]
+ rowon_n[10] adc_array_wafflecap_8_2[9|9]/sample adc_array_wafflecap_8_2[9|9]/sample_n
+ rowoff_n[10] VDD VDD VSS adc_array_wafflecap_dummy
Xadc_array_wafflecap_dummy_5[11] vcm adc_array_wafflecap_dummy_5[11]/ctop VSS row_n[11]
+ rowon_n[11] adc_array_wafflecap_8_2[10|9]/sample adc_array_wafflecap_8_2[10|9]/sample_n
+ rowoff_n[11] VDD VDD VSS adc_array_wafflecap_dummy
Xadc_array_wafflecap_dummy_5[12] vcm adc_array_wafflecap_dummy_5[12]/ctop VSS row_n[12]
+ rowon_n[12] adc_array_wafflecap_8_2[11|9]/sample adc_array_wafflecap_8_2[11|9]/sample_n
+ rowoff_n[12] VDD VDD VSS adc_array_wafflecap_dummy
Xadc_array_wafflecap_dummy_5[13] vcm adc_array_wafflecap_dummy_5[13]/ctop VSS row_n[13]
+ rowon_n[13] adc_array_wafflecap_8_2[12|9]/sample adc_array_wafflecap_8_2[12|9]/sample_n
+ rowoff_n[13] VDD VDD VSS adc_array_wafflecap_dummy
Xadc_array_wafflecap_dummy_5[14] vcm adc_array_wafflecap_dummy_5[14]/ctop VSS row_n[14]
+ rowon_n[14] adc_array_wafflecap_8_2[13|9]/sample adc_array_wafflecap_8_2[13|9]/sample_n
+ rowoff_n[14] VDD VDD VSS adc_array_wafflecap_dummy
Xadc_array_wafflecap_dummy_5[15] vcm adc_array_wafflecap_dummy_5[15]/ctop VSS row_n[15]
+ rowon_n[15] adc_array_wafflecap_8_2[14|9]/sample adc_array_wafflecap_8_2[14|9]/sample_n
+ rowoff_n[15] VDD VDD VSS adc_array_wafflecap_dummy
Xadc_array_wafflecap_dummy_7 vcm adc_array_wafflecap_dummy_7/ctop col[0] row_n[0]
+ rowon_n[0] adc_array_wafflecap_8_1[9]/sample adc_array_wafflecap_8_1[9]/sample_n
+ rowoff_n[0] col_n[0] VDD VSS adc_array_wafflecap_dummy
Xadc_array_wafflecap_dummy_6 vcm adc_array_wafflecap_dummy_6/ctop VSS VDD VSS adc_array_wafflecap_4_0/sample
+ adc_array_wafflecap_4_0/sample_n VDD VDD VDD VSS adc_array_wafflecap_dummy
Xadc_array_wafflecap_drv_0[0] vcm adc_array_wafflecap_drv_0[0]/ctop VSS VDD row_n[0]
+ rowon_n[0] sample adc_array_wafflecap_8_1[9]/sample sample_n adc_array_wafflecap_8_1[9]/sample_n
+ rowoff_n[0] VDD VSS adc_array_wafflecap_drv
Xadc_array_wafflecap_drv_0[1] vcm adc_array_wafflecap_drv_0[1]/ctop VSS VDD row_n[1]
+ rowon_n[1] sample adc_array_wafflecap_8_2[0|9]/sample sample_n adc_array_wafflecap_8_2[0|9]/sample_n
+ rowoff_n[1] VDD VSS adc_array_wafflecap_drv
Xadc_array_wafflecap_drv_0[2] vcm adc_array_wafflecap_drv_0[2]/ctop VSS VDD row_n[2]
+ rowon_n[2] sample adc_array_wafflecap_8_2[1|9]/sample sample_n adc_array_wafflecap_8_2[1|9]/sample_n
+ rowoff_n[2] VDD VSS adc_array_wafflecap_drv
Xadc_array_wafflecap_drv_0[3] vcm adc_array_wafflecap_drv_0[3]/ctop VSS VDD row_n[3]
+ rowon_n[3] sample adc_array_wafflecap_8_2[2|9]/sample sample_n adc_array_wafflecap_8_2[2|9]/sample_n
+ rowoff_n[3] VDD VSS adc_array_wafflecap_drv
Xadc_array_wafflecap_drv_0[4] vcm adc_array_wafflecap_drv_0[4]/ctop VSS VDD row_n[4]
+ rowon_n[4] sample adc_array_wafflecap_8_2[3|9]/sample sample_n adc_array_wafflecap_8_2[3|9]/sample_n
+ rowoff_n[4] VDD VSS adc_array_wafflecap_drv
Xadc_array_wafflecap_drv_0[5] vcm adc_array_wafflecap_drv_0[5]/ctop VSS VDD row_n[5]
+ rowon_n[5] sample adc_array_wafflecap_8_2[4|9]/sample sample_n adc_array_wafflecap_8_2[4|9]/sample_n
+ rowoff_n[5] VDD VSS adc_array_wafflecap_drv
Xadc_array_wafflecap_drv_0[6] vcm adc_array_wafflecap_drv_0[6]/ctop VSS VDD row_n[6]
+ rowon_n[6] sample adc_array_wafflecap_8_2[5|9]/sample sample_n adc_array_wafflecap_8_2[5|9]/sample_n
+ rowoff_n[6] VDD VSS adc_array_wafflecap_drv
Xadc_array_wafflecap_drv_0[7] vcm adc_array_wafflecap_drv_0[7]/ctop VSS VDD row_n[7]
+ rowon_n[7] sample adc_array_wafflecap_8_2[6|9]/sample sample_n adc_array_wafflecap_8_2[6|9]/sample_n
+ rowoff_n[7] VDD VSS adc_array_wafflecap_drv
Xadc_array_wafflecap_drv_0[8] vcm adc_array_wafflecap_drv_0[8]/ctop VSS VDD row_n[8]
+ rowon_n[8] sample adc_array_wafflecap_8_2[7|9]/sample sample_n adc_array_wafflecap_8_2[7|9]/sample_n
+ rowoff_n[8] VDD VSS adc_array_wafflecap_drv
Xadc_array_wafflecap_drv_0[9] vcm adc_array_wafflecap_drv_0[9]/ctop VSS VDD row_n[9]
+ rowon_n[9] sample adc_array_wafflecap_8_2[8|9]/sample sample_n adc_array_wafflecap_8_2[8|9]/sample_n
+ rowoff_n[9] VDD VSS adc_array_wafflecap_drv
Xadc_array_wafflecap_drv_0[10] vcm adc_array_wafflecap_drv_0[10]/ctop VSS VDD row_n[10]
+ rowon_n[10] sample adc_array_wafflecap_8_2[9|9]/sample sample_n adc_array_wafflecap_8_2[9|9]/sample_n
+ rowoff_n[10] VDD VSS adc_array_wafflecap_drv
Xadc_array_wafflecap_drv_0[11] vcm adc_array_wafflecap_drv_0[11]/ctop VSS VDD row_n[11]
+ rowon_n[11] sample adc_array_wafflecap_8_2[10|9]/sample sample_n adc_array_wafflecap_8_2[10|9]/sample_n
+ rowoff_n[11] VDD VSS adc_array_wafflecap_drv
Xadc_array_wafflecap_drv_0[12] vcm adc_array_wafflecap_drv_0[12]/ctop VSS VDD row_n[12]
+ rowon_n[12] sample adc_array_wafflecap_8_2[11|9]/sample sample_n adc_array_wafflecap_8_2[11|9]/sample_n
+ rowoff_n[12] VDD VSS adc_array_wafflecap_drv
Xadc_array_wafflecap_drv_0[13] vcm adc_array_wafflecap_drv_0[13]/ctop VSS VDD row_n[13]
+ rowon_n[13] sample adc_array_wafflecap_8_2[12|9]/sample sample_n adc_array_wafflecap_8_2[12|9]/sample_n
+ rowoff_n[13] VDD VSS adc_array_wafflecap_drv
Xadc_array_wafflecap_drv_0[14] vcm adc_array_wafflecap_drv_0[14]/ctop VSS VDD row_n[14]
+ rowon_n[14] sample adc_array_wafflecap_8_2[13|9]/sample sample_n adc_array_wafflecap_8_2[13|9]/sample_n
+ rowoff_n[14] VDD VSS adc_array_wafflecap_drv
Xadc_array_wafflecap_drv_0[15] vcm adc_array_wafflecap_drv_0[15]/ctop VSS VDD row_n[15]
+ rowon_n[15] sample adc_array_wafflecap_8_2[14|9]/sample sample_n adc_array_wafflecap_8_2[14|9]/sample_n
+ rowoff_n[15] VDD VSS adc_array_wafflecap_drv
Xadc_array_wafflecap_1_0 vcm ctop col[17] VDD VSS adc_array_wafflecap_4_0/sample adc_array_wafflecap_4_0/sample_n
+ VDD en_bit_n[0] col_n[17] VDD VSS adc_array_wafflecap_1
Xadc_array_wafflecap_1_1 vcm ctop col[1] VDD VSS adc_array_wafflecap_4_0/sample adc_array_wafflecap_4_0/sample_n
+ VDD en_C0_n col_n[1] VDD VSS adc_array_wafflecap_1
Xadc_array_wafflecap_drv_1 vcm adc_array_wafflecap_drv_1/ctop VSS VDD VDD VSS sample
+ adc_array_wafflecap_4_0/sample sample_n adc_array_wafflecap_4_0/sample_n VDD VDD
+ VSS adc_array_wafflecap_drv
Xadc_array_wafflecap_drv_2 vcm adc_array_wafflecap_drv_2/ctop VSS VDD VDD VDD sample
+ adc_array_wafflecap_drv_2/sample_o sample_n adc_array_wafflecap_drv_2/sample_n_o
+ VSS VDD VSS adc_array_wafflecap_drv
Xadc_array_wafflecap_8_1[0] vcm ctop col[1] row_n[0] rowon_n[0] adc_array_wafflecap_8_1[9]/sample
+ adc_array_wafflecap_8_1[9]/sample_n rowoff_n[0] col_n[1] VDD VSS adc_array_wafflecap_8
Xadc_array_wafflecap_8_1[1] vcm ctop col[2] row_n[0] rowon_n[0] adc_array_wafflecap_8_1[9]/sample
+ adc_array_wafflecap_8_1[9]/sample_n rowoff_n[0] col_n[2] VDD VSS adc_array_wafflecap_8
Xadc_array_wafflecap_8_1[2] vcm ctop col[3] row_n[0] rowon_n[0] adc_array_wafflecap_8_1[9]/sample
+ adc_array_wafflecap_8_1[9]/sample_n rowoff_n[0] col_n[3] VDD VSS adc_array_wafflecap_8
Xadc_array_wafflecap_8_1[3] vcm ctop col[4] row_n[0] rowon_n[0] adc_array_wafflecap_8_1[9]/sample
+ adc_array_wafflecap_8_1[9]/sample_n rowoff_n[0] col_n[4] VDD VSS adc_array_wafflecap_8
Xadc_array_wafflecap_8_1[4] vcm ctop col[5] row_n[0] rowon_n[0] adc_array_wafflecap_8_1[9]/sample
+ adc_array_wafflecap_8_1[9]/sample_n rowoff_n[0] col_n[5] VDD VSS adc_array_wafflecap_8
Xadc_array_wafflecap_8_1[5] vcm ctop col[6] row_n[0] rowon_n[0] adc_array_wafflecap_8_1[9]/sample
+ adc_array_wafflecap_8_1[9]/sample_n rowoff_n[0] col_n[6] VDD VSS adc_array_wafflecap_8
Xadc_array_wafflecap_8_1[6] vcm ctop col[7] row_n[0] rowon_n[0] adc_array_wafflecap_8_1[9]/sample
+ adc_array_wafflecap_8_1[9]/sample_n rowoff_n[0] col_n[7] VDD VSS adc_array_wafflecap_8
Xadc_array_wafflecap_8_1[7] vcm ctop col[8] row_n[0] rowon_n[0] adc_array_wafflecap_8_1[9]/sample
+ adc_array_wafflecap_8_1[9]/sample_n rowoff_n[0] col_n[8] VDD VSS adc_array_wafflecap_8
Xadc_array_wafflecap_8_1[8] vcm ctop col[9] row_n[0] rowon_n[0] adc_array_wafflecap_8_1[9]/sample
+ adc_array_wafflecap_8_1[9]/sample_n rowoff_n[0] col_n[9] VDD VSS adc_array_wafflecap_8
Xadc_array_wafflecap_8_1[9] vcm ctop col[10] row_n[0] rowon_n[0] adc_array_wafflecap_8_1[9]/sample
+ adc_array_wafflecap_8_1[9]/sample_n rowoff_n[0] col_n[10] VDD VSS adc_array_wafflecap_8
Xadc_array_wafflecap_8_1[10] vcm ctop col[11] row_n[0] rowon_n[0] adc_array_wafflecap_8_1[9]/sample
+ adc_array_wafflecap_8_1[9]/sample_n rowoff_n[0] col_n[11] VDD VSS adc_array_wafflecap_8
Xadc_array_wafflecap_8_1[11] vcm ctop col[12] row_n[0] rowon_n[0] adc_array_wafflecap_8_1[9]/sample
+ adc_array_wafflecap_8_1[9]/sample_n rowoff_n[0] col_n[12] VDD VSS adc_array_wafflecap_8
Xadc_array_wafflecap_8_1[12] vcm ctop col[13] row_n[0] rowon_n[0] adc_array_wafflecap_8_1[9]/sample
+ adc_array_wafflecap_8_1[9]/sample_n rowoff_n[0] col_n[13] VDD VSS adc_array_wafflecap_8
Xadc_array_wafflecap_8_1[13] vcm ctop col[14] row_n[0] rowon_n[0] adc_array_wafflecap_8_1[9]/sample
+ adc_array_wafflecap_8_1[9]/sample_n rowoff_n[0] col_n[14] VDD VSS adc_array_wafflecap_8
Xadc_array_wafflecap_8_1[14] vcm ctop col[15] row_n[0] rowon_n[0] adc_array_wafflecap_8_1[9]/sample
+ adc_array_wafflecap_8_1[9]/sample_n rowoff_n[0] col_n[15] VDD VSS adc_array_wafflecap_8
Xadc_array_wafflecap_8_1[15] vcm ctop col[16] row_n[0] rowon_n[0] adc_array_wafflecap_8_1[9]/sample
+ adc_array_wafflecap_8_1[9]/sample_n rowoff_n[0] col_n[16] VDD VSS adc_array_wafflecap_8
Xadc_array_wafflecap_8_1[16] vcm ctop col[17] row_n[0] rowon_n[0] adc_array_wafflecap_8_1[9]/sample
+ adc_array_wafflecap_8_1[9]/sample_n rowoff_n[0] col_n[17] VDD VSS adc_array_wafflecap_8
Xadc_array_wafflecap_8_1[17] vcm ctop col[18] row_n[0] rowon_n[0] adc_array_wafflecap_8_1[9]/sample
+ adc_array_wafflecap_8_1[9]/sample_n rowoff_n[0] col_n[18] VDD VSS adc_array_wafflecap_8
Xadc_array_wafflecap_8_1[18] vcm ctop col[19] row_n[0] rowon_n[0] adc_array_wafflecap_8_1[9]/sample
+ adc_array_wafflecap_8_1[9]/sample_n rowoff_n[0] col_n[19] VDD VSS adc_array_wafflecap_8
Xadc_array_wafflecap_8_1[19] vcm ctop col[20] row_n[0] rowon_n[0] adc_array_wafflecap_8_1[9]/sample
+ adc_array_wafflecap_8_1[9]/sample_n rowoff_n[0] col_n[20] VDD VSS adc_array_wafflecap_8
Xadc_array_wafflecap_8_1[20] vcm ctop col[21] row_n[0] rowon_n[0] adc_array_wafflecap_8_1[9]/sample
+ adc_array_wafflecap_8_1[9]/sample_n rowoff_n[0] col_n[21] VDD VSS adc_array_wafflecap_8
Xadc_array_wafflecap_8_1[21] vcm ctop col[22] row_n[0] rowon_n[0] adc_array_wafflecap_8_1[9]/sample
+ adc_array_wafflecap_8_1[9]/sample_n rowoff_n[0] col_n[22] VDD VSS adc_array_wafflecap_8
Xadc_array_wafflecap_8_1[22] vcm ctop col[23] row_n[0] rowon_n[0] adc_array_wafflecap_8_1[9]/sample
+ adc_array_wafflecap_8_1[9]/sample_n rowoff_n[0] col_n[23] VDD VSS adc_array_wafflecap_8
Xadc_array_wafflecap_8_1[23] vcm ctop col[24] row_n[0] rowon_n[0] adc_array_wafflecap_8_1[9]/sample
+ adc_array_wafflecap_8_1[9]/sample_n rowoff_n[0] col_n[24] VDD VSS adc_array_wafflecap_8
Xadc_array_wafflecap_8_1[24] vcm ctop col[25] row_n[0] rowon_n[0] adc_array_wafflecap_8_1[9]/sample
+ adc_array_wafflecap_8_1[9]/sample_n rowoff_n[0] col_n[25] VDD VSS adc_array_wafflecap_8
Xadc_array_wafflecap_8_1[25] vcm ctop col[26] row_n[0] rowon_n[0] adc_array_wafflecap_8_1[9]/sample
+ adc_array_wafflecap_8_1[9]/sample_n rowoff_n[0] col_n[26] VDD VSS adc_array_wafflecap_8
Xadc_array_wafflecap_8_1[26] vcm ctop col[27] row_n[0] rowon_n[0] adc_array_wafflecap_8_1[9]/sample
+ adc_array_wafflecap_8_1[9]/sample_n rowoff_n[0] col_n[27] VDD VSS adc_array_wafflecap_8
Xadc_array_wafflecap_8_1[27] vcm ctop col[28] row_n[0] rowon_n[0] adc_array_wafflecap_8_1[9]/sample
+ adc_array_wafflecap_8_1[9]/sample_n rowoff_n[0] col_n[28] VDD VSS adc_array_wafflecap_8
Xadc_array_wafflecap_8_1[28] vcm ctop col[29] row_n[0] rowon_n[0] adc_array_wafflecap_8_1[9]/sample
+ adc_array_wafflecap_8_1[9]/sample_n rowoff_n[0] col_n[29] VDD VSS adc_array_wafflecap_8
Xadc_array_wafflecap_8_1[29] vcm ctop col[30] row_n[0] rowon_n[0] adc_array_wafflecap_8_1[9]/sample
+ adc_array_wafflecap_8_1[9]/sample_n rowoff_n[0] col_n[30] VDD VSS adc_array_wafflecap_8
Xadc_array_wafflecap_8_1[30] vcm ctop col[31] row_n[0] rowon_n[0] adc_array_wafflecap_8_1[9]/sample
+ adc_array_wafflecap_8_1[9]/sample_n rowoff_n[0] col_n[31] VDD VSS adc_array_wafflecap_8
Xadc_array_wafflecap_8_2[0|0] vcm ctop col[0] row_n[1] rowon_n[1] adc_array_wafflecap_8_2[0|9]/sample
+ adc_array_wafflecap_8_2[0|9]/sample_n rowoff_n[1] col_n[0] VDD VSS adc_array_wafflecap_8
Xadc_array_wafflecap_8_2[1|0] vcm ctop col[0] row_n[2] rowon_n[2] adc_array_wafflecap_8_2[1|9]/sample
+ adc_array_wafflecap_8_2[1|9]/sample_n rowoff_n[2] col_n[0] VDD VSS adc_array_wafflecap_8
Xadc_array_wafflecap_8_2[2|0] vcm ctop col[0] row_n[3] rowon_n[3] adc_array_wafflecap_8_2[2|9]/sample
+ adc_array_wafflecap_8_2[2|9]/sample_n rowoff_n[3] col_n[0] VDD VSS adc_array_wafflecap_8
Xadc_array_wafflecap_8_2[3|0] vcm ctop col[0] row_n[4] rowon_n[4] adc_array_wafflecap_8_2[3|9]/sample
+ adc_array_wafflecap_8_2[3|9]/sample_n rowoff_n[4] col_n[0] VDD VSS adc_array_wafflecap_8
Xadc_array_wafflecap_8_2[4|0] vcm ctop col[0] row_n[5] rowon_n[5] adc_array_wafflecap_8_2[4|9]/sample
+ adc_array_wafflecap_8_2[4|9]/sample_n rowoff_n[5] col_n[0] VDD VSS adc_array_wafflecap_8
Xadc_array_wafflecap_8_2[5|0] vcm ctop col[0] row_n[6] rowon_n[6] adc_array_wafflecap_8_2[5|9]/sample
+ adc_array_wafflecap_8_2[5|9]/sample_n rowoff_n[6] col_n[0] VDD VSS adc_array_wafflecap_8
Xadc_array_wafflecap_8_2[6|0] vcm ctop col[0] row_n[7] rowon_n[7] adc_array_wafflecap_8_2[6|9]/sample
+ adc_array_wafflecap_8_2[6|9]/sample_n rowoff_n[7] col_n[0] VDD VSS adc_array_wafflecap_8
Xadc_array_wafflecap_8_2[7|0] vcm ctop col[0] row_n[8] rowon_n[8] adc_array_wafflecap_8_2[7|9]/sample
+ adc_array_wafflecap_8_2[7|9]/sample_n rowoff_n[8] col_n[0] VDD VSS adc_array_wafflecap_8
Xadc_array_wafflecap_8_2[8|0] vcm ctop col[0] row_n[9] rowon_n[9] adc_array_wafflecap_8_2[8|9]/sample
+ adc_array_wafflecap_8_2[8|9]/sample_n rowoff_n[9] col_n[0] VDD VSS adc_array_wafflecap_8
Xadc_array_wafflecap_8_2[9|0] vcm ctop col[0] row_n[10] rowon_n[10] adc_array_wafflecap_8_2[9|9]/sample
+ adc_array_wafflecap_8_2[9|9]/sample_n rowoff_n[10] col_n[0] VDD VSS adc_array_wafflecap_8
Xadc_array_wafflecap_8_2[10|0] vcm ctop col[0] row_n[11] rowon_n[11] adc_array_wafflecap_8_2[10|9]/sample
+ adc_array_wafflecap_8_2[10|9]/sample_n rowoff_n[11] col_n[0] VDD VSS adc_array_wafflecap_8
Xadc_array_wafflecap_8_2[11|0] vcm ctop col[0] row_n[12] rowon_n[12] adc_array_wafflecap_8_2[11|9]/sample
+ adc_array_wafflecap_8_2[11|9]/sample_n rowoff_n[12] col_n[0] VDD VSS adc_array_wafflecap_8
Xadc_array_wafflecap_8_2[12|0] vcm ctop col[0] row_n[13] rowon_n[13] adc_array_wafflecap_8_2[12|9]/sample
+ adc_array_wafflecap_8_2[12|9]/sample_n rowoff_n[13] col_n[0] VDD VSS adc_array_wafflecap_8
Xadc_array_wafflecap_8_2[13|0] vcm ctop col[0] row_n[14] rowon_n[14] adc_array_wafflecap_8_2[13|9]/sample
+ adc_array_wafflecap_8_2[13|9]/sample_n rowoff_n[14] col_n[0] VDD VSS adc_array_wafflecap_8
Xadc_array_wafflecap_8_2[14|0] vcm ctop col[0] row_n[15] rowon_n[15] adc_array_wafflecap_8_2[14|9]/sample
+ adc_array_wafflecap_8_2[14|9]/sample_n rowoff_n[15] col_n[0] VDD VSS adc_array_wafflecap_8
Xadc_array_wafflecap_8_2[0|1] vcm ctop col[1] row_n[1] rowon_n[1] adc_array_wafflecap_8_2[0|9]/sample
+ adc_array_wafflecap_8_2[0|9]/sample_n rowoff_n[1] col_n[1] VDD VSS adc_array_wafflecap_8
Xadc_array_wafflecap_8_2[1|1] vcm ctop col[1] row_n[2] rowon_n[2] adc_array_wafflecap_8_2[1|9]/sample
+ adc_array_wafflecap_8_2[1|9]/sample_n rowoff_n[2] col_n[1] VDD VSS adc_array_wafflecap_8
Xadc_array_wafflecap_8_2[2|1] vcm ctop col[1] row_n[3] rowon_n[3] adc_array_wafflecap_8_2[2|9]/sample
+ adc_array_wafflecap_8_2[2|9]/sample_n rowoff_n[3] col_n[1] VDD VSS adc_array_wafflecap_8
Xadc_array_wafflecap_8_2[3|1] vcm ctop col[1] row_n[4] rowon_n[4] adc_array_wafflecap_8_2[3|9]/sample
+ adc_array_wafflecap_8_2[3|9]/sample_n rowoff_n[4] col_n[1] VDD VSS adc_array_wafflecap_8
Xadc_array_wafflecap_8_2[4|1] vcm ctop col[1] row_n[5] rowon_n[5] adc_array_wafflecap_8_2[4|9]/sample
+ adc_array_wafflecap_8_2[4|9]/sample_n rowoff_n[5] col_n[1] VDD VSS adc_array_wafflecap_8
Xadc_array_wafflecap_8_2[5|1] vcm ctop col[1] row_n[6] rowon_n[6] adc_array_wafflecap_8_2[5|9]/sample
+ adc_array_wafflecap_8_2[5|9]/sample_n rowoff_n[6] col_n[1] VDD VSS adc_array_wafflecap_8
Xadc_array_wafflecap_8_2[6|1] vcm ctop col[1] row_n[7] rowon_n[7] adc_array_wafflecap_8_2[6|9]/sample
+ adc_array_wafflecap_8_2[6|9]/sample_n rowoff_n[7] col_n[1] VDD VSS adc_array_wafflecap_8
Xadc_array_wafflecap_8_2[7|1] vcm ctop col[1] row_n[8] rowon_n[8] adc_array_wafflecap_8_2[7|9]/sample
+ adc_array_wafflecap_8_2[7|9]/sample_n rowoff_n[8] col_n[1] VDD VSS adc_array_wafflecap_8
Xadc_array_wafflecap_8_2[8|1] vcm ctop col[1] row_n[9] rowon_n[9] adc_array_wafflecap_8_2[8|9]/sample
+ adc_array_wafflecap_8_2[8|9]/sample_n rowoff_n[9] col_n[1] VDD VSS adc_array_wafflecap_8
Xadc_array_wafflecap_8_2[9|1] vcm ctop col[1] row_n[10] rowon_n[10] adc_array_wafflecap_8_2[9|9]/sample
+ adc_array_wafflecap_8_2[9|9]/sample_n rowoff_n[10] col_n[1] VDD VSS adc_array_wafflecap_8
Xadc_array_wafflecap_8_2[10|1] vcm ctop col[1] row_n[11] rowon_n[11] adc_array_wafflecap_8_2[10|9]/sample
+ adc_array_wafflecap_8_2[10|9]/sample_n rowoff_n[11] col_n[1] VDD VSS adc_array_wafflecap_8
Xadc_array_wafflecap_8_2[11|1] vcm ctop col[1] row_n[12] rowon_n[12] adc_array_wafflecap_8_2[11|9]/sample