* NGSPICE file created from adc_clkgen_with_edgedetect.ext - technology: sky130A

.subckt sky130_fd_sc_hd__inv_2 A Y VPWR VGND VNB VPB
X0 Y A VPWR VPB sky130_fd_pr__pfet_01v8_hvt ad=2.7e+11p pd=2.54e+06u as=5.2e+11p ps=5.04e+06u w=1e+06u l=150000u
X1 VGND A Y VNB sky130_fd_pr__nfet_01v8 ad=3.38e+11p pd=3.64e+06u as=1.755e+11p ps=1.84e+06u w=650000u l=150000u
X2 Y A VGND VNB sky130_fd_pr__nfet_01v8 ad=0p pd=0u as=0p ps=0u w=650000u l=150000u
X3 VPWR A Y VPB sky130_fd_pr__pfet_01v8_hvt ad=0p pd=0u as=0p ps=0u w=1e+06u l=150000u
.ends

.subckt sky130_fd_sc_hd__decap_3 VPWR VGND VNB VPB
X0 VPWR VGND VPWR VPB sky130_fd_pr__pfet_01v8_hvt ad=4.524e+11p pd=4.52e+06u as=0p ps=0u w=870000u l=590000u
X1 VGND VPWR VGND VNB sky130_fd_pr__nfet_01v8 ad=2.86e+11p pd=3.24e+06u as=0p ps=0u w=550000u l=590000u
.ends

.subckt sky130_fd_sc_hd__decap_4 VGND VPWR VNB VPB
X0 VPWR VGND VPWR VPB sky130_fd_pr__pfet_01v8_hvt ad=4.524e+11p pd=4.52e+06u as=0p ps=0u w=870000u l=1.05e+06u
X1 VGND VPWR VGND VNB sky130_fd_pr__nfet_01v8 ad=2.86e+11p pd=3.24e+06u as=0p ps=0u w=550000u l=1.05e+06u
.ends

.subckt sky130_fd_sc_hd__mux2_1 VGND VPWR S A1 A0 X VNB VPB
X0 VPWR a_505_21# a_535_374# VPB sky130_fd_pr__pfet_01v8_hvt ad=4.553e+11p pd=4.29e+06u as=8.82e+10p ps=1.26e+06u w=420000u l=150000u
X1 a_505_21# S VPWR VPB sky130_fd_pr__pfet_01v8_hvt ad=1.176e+11p pd=1.4e+06u as=0p ps=0u w=420000u l=150000u
X2 a_218_374# S VPWR VPB sky130_fd_pr__pfet_01v8_hvt ad=1.533e+11p pd=1.57e+06u as=0p ps=0u w=420000u l=150000u
X3 VGND a_505_21# a_439_47# VNB sky130_fd_pr__nfet_01v8 ad=5.155e+11p pd=4.31e+06u as=1.386e+11p ps=1.5e+06u w=420000u l=150000u
X4 a_76_199# A0 a_218_374# VPB sky130_fd_pr__pfet_01v8_hvt ad=3.864e+11p pd=2.68e+06u as=0p ps=0u w=420000u l=150000u
X5 a_505_21# S VGND VNB sky130_fd_pr__nfet_01v8 ad=1.092e+11p pd=1.36e+06u as=0p ps=0u w=420000u l=150000u
X6 a_439_47# A0 a_76_199# VNB sky130_fd_pr__nfet_01v8 ad=0p pd=0u as=1.995e+11p ps=1.79e+06u w=420000u l=150000u
X7 a_535_374# A1 a_76_199# VPB sky130_fd_pr__pfet_01v8_hvt ad=0p pd=0u as=0p ps=0u w=420000u l=150000u
X8 a_76_199# A1 a_218_47# VNB sky130_fd_pr__nfet_01v8 ad=0p pd=0u as=1.386e+11p ps=1.5e+06u w=420000u l=150000u
X9 a_218_47# S VGND VNB sky130_fd_pr__nfet_01v8 ad=0p pd=0u as=0p ps=0u w=420000u l=150000u
X10 VPWR a_76_199# X VPB sky130_fd_pr__pfet_01v8_hvt ad=0p pd=0u as=2.6e+11p ps=2.52e+06u w=1e+06u l=150000u
X11 VGND a_76_199# X VNB sky130_fd_pr__nfet_01v8 ad=0p pd=0u as=1.69e+11p ps=1.82e+06u w=650000u l=150000u
.ends

.subckt sky130_fd_sc_hd__decap_6 VPWR VGND VNB VPB
X0 VPWR VGND VPWR VPB sky130_fd_pr__pfet_01v8_hvt ad=4.524e+11p pd=4.52e+06u as=0p ps=0u w=870000u l=1.97e+06u
X1 VGND VPWR VGND VNB sky130_fd_pr__nfet_01v8 ad=2.86e+11p pd=3.24e+06u as=0p ps=0u w=550000u l=1.97e+06u
.ends

.subckt sky130_fd_sc_hd__diode_2 DIODE VGND VPWR VPB VNB
D0 VNB DIODE sky130_fd_pr__diode_pw2nd_05v5 pj=2.64e+06 area=4.347e+11
.ends

.subckt sky130_fd_sc_hd__or2_1 A X B VGND VPWR VNB VPB
X0 VGND A a_68_297# VNB sky130_fd_pr__nfet_01v8 ad=3.097e+11p pd=3.33e+06u as=1.134e+11p ps=1.38e+06u w=420000u l=150000u
X1 a_68_297# B VGND VNB sky130_fd_pr__nfet_01v8 ad=0p pd=0u as=0p ps=0u w=420000u l=150000u
X2 X a_68_297# VGND VNB sky130_fd_pr__nfet_01v8 ad=1.69e+11p pd=1.82e+06u as=0p ps=0u w=650000u l=150000u
X3 VPWR A a_150_297# VPB sky130_fd_pr__pfet_01v8_hvt ad=2.915e+11p pd=2.67e+06u as=8.82e+10p ps=1.26e+06u w=420000u l=150000u
X4 X a_68_297# VPWR VPB sky130_fd_pr__pfet_01v8_hvt ad=3.4e+11p pd=2.68e+06u as=0p ps=0u w=1e+06u l=150000u
X5 a_150_297# B a_68_297# VPB sky130_fd_pr__pfet_01v8_hvt ad=0p pd=0u as=1.092e+11p ps=1.36e+06u w=420000u l=150000u
.ends

.subckt sky130_mm_sc_hd_dlyPoly5ns VPWR VGND in out VNB VPB
X0 a_1691_329# out VGND VPB sky130_fd_pr__pfet_01v8_hvt ad=7.52e+11p pd=6.68e+06u as=2.64e+11p ps=2.26e+06u w=800000u l=150000u
X1 a_1691_329# mid VPWR VPB sky130_fd_pr__pfet_01v8_hvt ad=0p pd=0u as=4.72e+11p ps=4.38e+06u w=800000u l=150000u
X2 out mid a_1691_329# VPB sky130_fd_pr__pfet_01v8_hvt ad=2.4e+11p pd=2.2e+06u as=0p ps=0u w=800000u l=150000u
X3 VGND out a_1691_329# VPB sky130_fd_pr__pfet_01v8_hvt ad=0p pd=0u as=0p ps=0u w=800000u l=150000u
X4 VGND mid VGND VNB sky130_fd_pr__nfet_01v8 ad=1.0453e+12p pd=9.52e+06u as=0p ps=0u w=1.375e+06u l=2.045e+06u
X5 a_1632_71# mid VGND VNB sky130_fd_pr__nfet_01v8 ad=3.99e+11p pd=4.42e+06u as=0p ps=0u w=420000u l=150000u
X6 VPWR out a_1632_71# VNB sky130_fd_pr__nfet_01v8 ad=1.386e+11p pd=1.5e+06u as=0p ps=0u w=420000u l=150000u
X7 a_1632_71# out VPWR VNB sky130_fd_pr__nfet_01v8 ad=0p pd=0u as=0p ps=0u w=420000u l=150000u
X8 out mid a_1632_71# VNB sky130_fd_pr__nfet_01v8 ad=1.218e+11p pd=1.42e+06u as=0p ps=0u w=420000u l=150000u
X9 mid in VPWR VPB sky130_fd_pr__pfet_01v8_hvt ad=2.32e+11p pd=2.18e+06u as=0p ps=0u w=800000u l=1.42e+06u
X10 mid in VGND VNB sky130_fd_pr__nfet_01v8 ad=1.218e+11p pd=1.42e+06u as=0p ps=0u w=420000u l=3.69e+06u
.ends

.subckt sky130_fd_sc_hd__and2_1 VPWR VGND X B A VNB VPB
X0 VPWR B a_59_75# VPB sky130_fd_pr__pfet_01v8_hvt ad=4.507e+11p pd=4.18e+06u as=1.134e+11p ps=1.38e+06u w=420000u l=150000u
X1 X a_59_75# VPWR VPB sky130_fd_pr__pfet_01v8_hvt ad=4.75e+11p pd=2.95e+06u as=0p ps=0u w=1e+06u l=150000u
X2 VGND B a_145_75# VNB sky130_fd_pr__nfet_01v8 ad=2.236e+11p pd=2.08e+06u as=1.134e+11p ps=1.38e+06u w=420000u l=150000u
X3 a_59_75# A VPWR VPB sky130_fd_pr__pfet_01v8_hvt ad=0p pd=0u as=0p ps=0u w=420000u l=150000u
X4 X a_59_75# VGND VNB sky130_fd_pr__nfet_01v8 ad=1.82e+11p pd=1.86e+06u as=0p ps=0u w=650000u l=150000u
X5 a_145_75# A a_59_75# VNB sky130_fd_pr__nfet_01v8 ad=0p pd=0u as=1.176e+11p ps=1.4e+06u w=420000u l=150000u
.ends

.subckt sky130_ef_sc_hd__decap_12 VGND VPWR VNB VPB
X0 VPWR VGND VPWR VPB sky130_fd_pr__pfet_01v8_hvt ad=4.524e+11p pd=4.52e+06u as=0p ps=0u w=870000u l=4.73e+06u
X1 VGND VPWR VGND VNB sky130_fd_pr__nfet_01v8 ad=2.86e+11p pd=3.24e+06u as=0p ps=0u w=550000u l=4.73e+06u
.ends

.subckt sky130_fd_sc_hd__nor2b_1 B_N Y A VGND VPWR VNB VPB
X0 Y a_74_47# a_265_297# VPB sky130_fd_pr__pfet_01v8_hvt ad=2.6e+11p pd=2.52e+06u as=2.1e+11p ps=2.42e+06u w=1e+06u l=150000u
X1 VPWR B_N a_74_47# VPB sky130_fd_pr__pfet_01v8_hvt ad=3.146e+11p pd=2.78e+06u as=1.092e+11p ps=1.36e+06u w=420000u l=150000u
X2 a_265_297# A VPWR VPB sky130_fd_pr__pfet_01v8_hvt ad=0p pd=0u as=0p ps=0u w=1e+06u l=150000u
X3 Y A VGND VNB sky130_fd_pr__nfet_01v8 ad=1.755e+11p pd=1.84e+06u as=3.695e+11p ps=3.79e+06u w=650000u l=150000u
X4 VGND B_N a_74_47# VNB sky130_fd_pr__nfet_01v8 ad=0p pd=0u as=1.092e+11p ps=1.36e+06u w=420000u l=150000u
X5 VGND a_74_47# Y VNB sky130_fd_pr__nfet_01v8 ad=0p pd=0u as=0p ps=0u w=650000u l=150000u
.ends

.subckt sky130_fd_sc_hd__decap_8 VPWR VGND VNB VPB
X0 VPWR VGND VPWR VPB sky130_fd_pr__pfet_01v8_hvt ad=4.524e+11p pd=4.52e+06u as=0p ps=0u w=870000u l=2.89e+06u
X1 VGND VPWR VGND VNB sky130_fd_pr__nfet_01v8 ad=2.86e+11p pd=3.24e+06u as=0p ps=0u w=550000u l=2.89e+06u
.ends

.subckt sky130_fd_sc_hd__and2b_1 X A_N B VGND VPWR VNB VPB
X0 VPWR B a_207_413# VPB sky130_fd_pr__pfet_01v8_hvt ad=5.986e+11p pd=5e+06u as=1.218e+11p ps=1.42e+06u w=420000u l=150000u
X1 X a_207_413# VPWR VPB sky130_fd_pr__pfet_01v8_hvt ad=2.6e+11p pd=2.52e+06u as=0p ps=0u w=1e+06u l=150000u
X2 a_297_47# a_27_413# a_207_413# VNB sky130_fd_pr__nfet_01v8 ad=1.008e+11p pd=1.32e+06u as=1.092e+11p ps=1.36e+06u w=420000u l=150000u
X3 X a_207_413# VGND VNB sky130_fd_pr__nfet_01v8 ad=1.69e+11p pd=1.82e+06u as=3.118e+11p ps=3.34e+06u w=650000u l=150000u
X4 a_207_413# a_27_413# VPWR VPB sky130_fd_pr__pfet_01v8_hvt ad=0p pd=0u as=0p ps=0u w=420000u l=150000u
X5 VPWR A_N a_27_413# VPB sky130_fd_pr__pfet_01v8_hvt ad=0p pd=0u as=1.092e+11p ps=1.36e+06u w=420000u l=150000u
X6 VGND B a_297_47# VNB sky130_fd_pr__nfet_01v8 ad=0p pd=0u as=0p ps=0u w=420000u l=150000u
X7 a_27_413# A_N VGND VNB sky130_fd_pr__nfet_01v8 ad=1.092e+11p pd=1.36e+06u as=0p ps=0u w=420000u l=150000u
.ends

.subckt sky130_fd_sc_hd__buf_1 VGND VPWR X A VNB VPB
X0 VPWR A a_27_47# VPB sky130_fd_pr__pfet_01v8_hvt ad=2.291e+11p pd=2.16e+06u as=2.054e+11p ps=2.1e+06u w=790000u l=150000u
X1 X a_27_47# VGND VNB sky130_fd_pr__nfet_01v8 ad=1.352e+11p pd=1.56e+06u as=1.508e+11p ps=1.62e+06u w=520000u l=150000u
X2 X a_27_47# VPWR VPB sky130_fd_pr__pfet_01v8_hvt ad=2.054e+11p pd=2.1e+06u as=0p ps=0u w=790000u l=150000u
X3 VGND A a_27_47# VNB sky130_fd_pr__nfet_01v8 ad=0p pd=0u as=1.352e+11p ps=1.56e+06u w=520000u l=150000u
.ends

.subckt sky130_fd_sc_hd__dlymetal6s6s_1 VPWR VGND A X VNB VPB
X0 X a_629_47# VGND VNB sky130_fd_pr__nfet_01v8 ad=1.69e+11p pd=1.82e+06u as=5.82e+11p ps=5.85e+06u w=650000u l=150000u
X1 a_523_47# a_346_47# VGND VNB sky130_fd_pr__nfet_01v8 ad=1.69e+11p pd=1.82e+06u as=0p ps=0u w=650000u l=150000u
X2 VGND a_240_47# a_346_47# VNB sky130_fd_pr__nfet_01v8 ad=0p pd=0u as=1.092e+11p ps=1.36e+06u w=420000u l=150000u
X3 a_240_47# a_63_47# VGND VNB sky130_fd_pr__nfet_01v8 ad=1.69e+11p pd=1.82e+06u as=0p ps=0u w=650000u l=150000u
X4 VPWR a_240_47# a_346_47# VPB sky130_fd_pr__pfet_01v8_hvt ad=8.445e+11p pd=7.95e+06u as=1.092e+11p ps=1.36e+06u w=420000u l=150000u
X5 VGND A a_63_47# VNB sky130_fd_pr__nfet_01v8 ad=0p pd=0u as=1.092e+11p ps=1.36e+06u w=420000u l=150000u
X6 VPWR A a_63_47# VPB sky130_fd_pr__pfet_01v8_hvt ad=0p pd=0u as=1.092e+11p ps=1.36e+06u w=420000u l=150000u
X7 VPWR a_523_47# a_629_47# VPB sky130_fd_pr__pfet_01v8_hvt ad=0p pd=0u as=1.092e+11p ps=1.36e+06u w=420000u l=150000u
X8 VGND a_523_47# a_629_47# VNB sky130_fd_pr__nfet_01v8 ad=0p pd=0u as=1.092e+11p ps=1.36e+06u w=420000u l=150000u
X9 a_523_47# a_346_47# VPWR VPB sky130_fd_pr__pfet_01v8_hvt ad=2.6e+11p pd=2.52e+06u as=0p ps=0u w=1e+06u l=150000u
X10 a_240_47# a_63_47# VPWR VPB sky130_fd_pr__pfet_01v8_hvt ad=2.6e+11p pd=2.52e+06u as=0p ps=0u w=1e+06u l=150000u
X11 X a_629_47# VPWR VPB sky130_fd_pr__pfet_01v8_hvt ad=2.6e+11p pd=2.52e+06u as=0p ps=0u w=1e+06u l=150000u
.ends

.subckt sky130_fd_sc_hd__buf_4 VPWR VGND X A VNB VPB
X0 VPWR a_27_47# X VPB sky130_fd_pr__pfet_01v8_hvt ad=8e+11p pd=7.6e+06u as=5.4e+11p ps=5.08e+06u w=1e+06u l=150000u
X1 X a_27_47# VPWR VPB sky130_fd_pr__pfet_01v8_hvt ad=0p pd=0u as=0p ps=0u w=1e+06u l=150000u
X2 VPWR a_27_47# X VPB sky130_fd_pr__pfet_01v8_hvt ad=0p pd=0u as=0p ps=0u w=1e+06u l=150000u
X3 X a_27_47# VPWR VPB sky130_fd_pr__pfet_01v8_hvt ad=0p pd=0u as=0p ps=0u w=1e+06u l=150000u
X4 X a_27_47# VGND VNB sky130_fd_pr__nfet_01v8 ad=3.51e+11p pd=3.68e+06u as=5.2e+11p ps=5.5e+06u w=650000u l=150000u
X5 X a_27_47# VGND VNB sky130_fd_pr__nfet_01v8 ad=0p pd=0u as=0p ps=0u w=650000u l=150000u
X6 VGND a_27_47# X VNB sky130_fd_pr__nfet_01v8 ad=0p pd=0u as=0p ps=0u w=650000u l=150000u
X7 VGND a_27_47# X VNB sky130_fd_pr__nfet_01v8 ad=0p pd=0u as=0p ps=0u w=650000u l=150000u
X8 VPWR A a_27_47# VPB sky130_fd_pr__pfet_01v8_hvt ad=0p pd=0u as=2.6e+11p ps=2.52e+06u w=1e+06u l=150000u
X9 VGND A a_27_47# VNB sky130_fd_pr__nfet_01v8 ad=0p pd=0u as=1.69e+11p ps=1.82e+06u w=650000u l=150000u
.ends

.subckt adc_clkgen_with_edgedetect VDD VSS clk_comp_out clk_dig_out dlycontrol1_in[0]
+ dlycontrol1_in[1] dlycontrol1_in[2] dlycontrol1_in[3] dlycontrol1_in[4] dlycontrol2_in[0]
+ dlycontrol2_in[1] dlycontrol2_in[2] dlycontrol2_in[3] dlycontrol2_in[4] dlycontrol3_in[0]
+ dlycontrol3_in[1] dlycontrol3_in[2] dlycontrol3_in[3] dlycontrol3_in[4] dlycontrol4_in[0]
+ dlycontrol4_in[1] dlycontrol4_in[2] dlycontrol4_in[3] dlycontrol4_in[4] dlycontrol4_in[5]
+ ena_in enable_dlycontrol_in ndecision_finish_in nsample_n_in nsample_n_out nsample_p_in
+ nsample_p_out sample_n_in sample_n_out sample_p_in sample_p_out start_conv_in
Xclkgen.delay_155ns_2.genblk1\[0\].control_invert dlycontrol2_in[0] clkgen.delay_155ns_2.bypass_enable_w\[0\]
+ VDD VSS VSS VDD sky130_fd_sc_hd__inv_2
XFILLER_18_214 VDD VSS VSS VDD sky130_fd_sc_hd__decap_3
XFILLER_10_125 VSS VDD VSS VDD sky130_fd_sc_hd__decap_4
Xclkgen.delay_155ns_2.genblk1\[0\].dly_binary.out_mux VSS VDD clkgen.delay_155ns_2.genblk1\[0\].dly_binary.bypass_in
+ clkgen.clk_dig_out clkgen.delay_155ns_2.genblk1\[0\].dly_binary.signal_w\[1\] clkgen.delay_155ns_2.genblk1\[0\].dly_binary.out
+ VSS VDD sky130_fd_sc_hd__mux2_1
XFILLER_17_291 VSS VDD VSS VDD sky130_fd_sc_hd__decap_4
Xclkgen.delay_155ns_2.genblk1\[2\].dly_binary.out_mux VSS VDD clkgen.delay_155ns_2.genblk1\[2\].dly_binary.bypass_in
+ clkgen.delay_155ns_2.genblk1\[1\].dly_binary.out clkgen.delay_155ns_2.genblk1\[2\].dly_binary.signal_w\[4\]
+ clkgen.delay_155ns_2.genblk1\[2\].dly_binary.out VSS VDD sky130_fd_sc_hd__mux2_1
XFILLER_14_272 VDD VSS VSS VDD sky130_fd_sc_hd__decap_6
Xclkgen.delay_155ns_2.genblk1\[4\].dly_binary.out_mux VSS VDD clkgen.delay_155ns_2.genblk1\[4\].dly_binary.bypass_in
+ clkgen.delay_155ns_2.genblk1\[3\].dly_binary.out clkgen.delay_155ns_2.genblk1\[4\].dly_binary.signal_w\[16\]
+ clkgen.clk_dig_delayed_w VSS VDD sky130_fd_sc_hd__mux2_1
XANTENNA_clkgen.delay_155ns_1.genblk1\[2\].control_invert_A dlycontrol1_in[2] VSS
+ VDD VDD VSS sky130_fd_sc_hd__diode_2
XFILLER_2_143 VSS VDD VSS VDD sky130_fd_sc_hd__decap_4
Xedgedetect.or1 edgedetect.start_conv_edge_w clkgen.enable_loop_in edgedetect.ena_in
+ VSS VDD VSS VDD sky130_fd_sc_hd__or2_1
XFILLER_11_275 VSS VDD VSS VDD sky130_fd_sc_hd__decap_4
XFILLER_11_242 VDD VSS VSS VDD sky130_fd_sc_hd__decap_6
XFILLER_16_334 VDD VSS VSS VDD sky130_fd_sc_hd__decap_6
Xclkgen.delay_155ns_3.genblk1\[0\].dly_binary.genblk1\[0\].delay_unit VDD VSS clkgen.delay_155ns_3.genblk1\[0\].dly_binary.signal_w\[0\]
+ clkgen.delay_155ns_3.genblk1\[0\].dly_binary.signal_w\[1\] VSS VDD sky130_mm_sc_hd_dlyPoly5ns
XFILLER_4_205 VSS VDD VSS VDD sky130_fd_sc_hd__decap_4
Xedgedetect.dly_315ns_1.genblk1\[1\].bypass_enable VDD VSS edgedetect.dly_315ns_1.genblk1\[1\].dly_binary.bypass_in
+ edgedetect.dly_315ns_1.bypass_enable_w\[1\] edgedetect.dly_315ns_1.enable_dlycontrol_w
+ VSS VDD sky130_fd_sc_hd__and2_1
XFILLER_13_3 VSS VDD VSS VDD sky130_fd_sc_hd__decap_4
XFILLER_6_56 VSS VDD VSS VDD sky130_fd_sc_hd__decap_4
XFILLER_1_208 VSS VDD VSS VDD sky130_fd_sc_hd__decap_4
XFILLER_0_241 VDD VSS VSS VDD sky130_fd_sc_hd__decap_6
XANTENNA_clkgen.delay_155ns_2.genblk1\[1\].control_invert_A dlycontrol2_in[1] VSS
+ VDD VDD VSS sky130_fd_sc_hd__diode_2
Xclkgen.delay_155ns_1.genblk1\[4\].dly_binary.genblk1\[14\].delay_unit VDD VSS clkgen.delay_155ns_1.genblk1\[4\].dly_binary.signal_w\[14\]
+ clkgen.delay_155ns_1.genblk1\[4\].dly_binary.signal_w\[15\] VSS VDD sky130_mm_sc_hd_dlyPoly5ns
XFILLER_13_156 VSS VDD VSS VDD sky130_fd_sc_hd__decap_4
XANTENNA_clkgen.delay_155ns_2.genblk1\[1\].dly_binary.and_bypass_switch_A_N clkgen.delay_155ns_2.genblk1\[1\].dly_binary.bypass_in
+ VSS VDD VDD VSS sky130_fd_sc_hd__diode_2
XFILLER_5_311 VSS VDD VSS VDD sky130_ef_sc_hd__decap_12
Xclkgen.delay_155ns_1.genblk1\[2\].bypass_enable VDD VSS clkgen.delay_155ns_1.genblk1\[2\].dly_binary.bypass_in
+ clkgen.delay_155ns_1.bypass_enable_w\[2\] clkgen.delay_155ns_1.enable_dlycontrol_w
+ VSS VDD sky130_fd_sc_hd__and2_1
Xclkgen.delay_155ns_2.genblk1\[3\].bypass_enable VDD VSS clkgen.delay_155ns_2.genblk1\[3\].dly_binary.bypass_in
+ clkgen.delay_155ns_2.bypass_enable_w\[3\] clkgen.delay_155ns_2.enable_dlycontrol_w
+ VSS VDD sky130_fd_sc_hd__and2_1
Xclkgen.delay_155ns_3.genblk1\[4\].bypass_enable VDD VSS clkgen.delay_155ns_3.genblk1\[4\].dly_binary.bypass_in
+ clkgen.delay_155ns_3.bypass_enable_w\[4\] clkgen.delay_155ns_3.enable_dlycontrol_w
+ VSS VDD sky130_fd_sc_hd__and2_1
XANTENNA_clkgen.delay_155ns_3.genblk1\[0\].control_invert_A dlycontrol3_in[0] VSS
+ VDD VDD VSS sky130_fd_sc_hd__diode_2
Xedgedetect.dly_315ns_1.genblk1\[5\].dly_binary.genblk1\[3\].delay_unit VDD VSS edgedetect.dly_315ns_1.genblk1\[5\].dly_binary.signal_w\[3\]
+ edgedetect.dly_315ns_1.genblk1\[5\].dly_binary.signal_w\[4\] VSS VDD sky130_mm_sc_hd_dlyPoly5ns
XFILLER_0_58 VSS VDD VSS VDD sky130_fd_sc_hd__decap_4
XANTENNA_sampledly04_A nsample_n_in VSS VDD VDD VSS sky130_fd_sc_hd__diode_2
XFILLER_18_32 VDD VSS VSS VDD sky130_fd_sc_hd__decap_6
XFILLER_11_287 VSS VDD VSS VDD sky130_fd_sc_hd__decap_4
XFILLER_19_321 VSS VDD VSS VDD sky130_ef_sc_hd__decap_12
Xclkgen.delay_155ns_3.genblk1\[4\].dly_binary.genblk1\[1\].delay_unit VDD VSS clkgen.delay_155ns_3.genblk1\[4\].dly_binary.signal_w\[1\]
+ clkgen.delay_155ns_3.genblk1\[4\].dly_binary.signal_w\[2\] VSS VDD sky130_mm_sc_hd_dlyPoly5ns
Xedgedetect.dly_315ns_1.genblk1\[1\].control_invert dlycontrol4_in[1] edgedetect.dly_315ns_1.bypass_enable_w\[1\]
+ VDD VSS VSS VDD sky130_fd_sc_hd__inv_2
XFILLER_13_305 VSS VDD VSS VDD sky130_fd_sc_hd__decap_4
XFILLER_10_319 VSS VDD VSS VDD sky130_fd_sc_hd__decap_4
Xedgedetect.dly_315ns_1.genblk1\[5\].dly_binary.genblk1\[8\].delay_unit VDD VSS edgedetect.dly_315ns_1.genblk1\[5\].dly_binary.signal_w\[8\]
+ edgedetect.dly_315ns_1.genblk1\[5\].dly_binary.signal_w\[9\] VSS VDD sky130_mm_sc_hd_dlyPoly5ns
XFILLER_5_323 VDD VSS VSS VDD sky130_fd_sc_hd__decap_6
XFILLER_2_304 VSS VDD VSS VDD sky130_ef_sc_hd__decap_12
Xclkgen.delay_155ns_2.genblk1\[4\].dly_binary.genblk1\[12\].delay_unit VDD VSS clkgen.delay_155ns_2.genblk1\[4\].dly_binary.signal_w\[12\]
+ clkgen.delay_155ns_2.genblk1\[4\].dly_binary.signal_w\[13\] VSS VDD sky130_mm_sc_hd_dlyPoly5ns
Xclkgen.delay_155ns_3.genblk1\[4\].dly_binary.genblk1\[6\].delay_unit VDD VSS clkgen.delay_155ns_3.genblk1\[4\].dly_binary.signal_w\[6\]
+ clkgen.delay_155ns_3.genblk1\[4\].dly_binary.signal_w\[7\] VSS VDD sky130_mm_sc_hd_dlyPoly5ns
XFILLER_5_153 VSS VDD VSS VDD sky130_fd_sc_hd__decap_4
XFILLER_3_3 VDD VSS VSS VDD sky130_fd_sc_hd__decap_6
Xedgedetect.nor1 edgedetect.dly_315ns_1.genblk1\[0\].dly_binary.in edgedetect.start_conv_edge_w
+ edgedetect.dly_315ns_1.genblk1\[5\].dly_binary.out VSS VDD VSS VDD sky130_fd_sc_hd__nor2b_1
Xclkgen.delay_155ns_2.genblk1\[4\].dly_binary.genblk1\[0\].delay_unit VDD VSS clkgen.delay_155ns_2.genblk1\[4\].dly_binary.signal_w\[0\]
+ clkgen.delay_155ns_2.genblk1\[4\].dly_binary.signal_w\[1\] VSS VDD sky130_mm_sc_hd_dlyPoly5ns
XFILLER_11_299 VSS VDD VSS VDD sky130_fd_sc_hd__decap_4
XFILLER_19_333 VDD VSS VSS VDD sky130_fd_sc_hd__decap_8
Xclkgen.delay_155ns_3.genblk1\[1\].control_invert dlycontrol3_in[1] clkgen.delay_155ns_3.bypass_enable_w\[1\]
+ VDD VSS VSS VDD sky130_fd_sc_hd__inv_2
XFILLER_0_276 VDD VSS VSS VDD sky130_fd_sc_hd__decap_3
Xedgedetect.dly_315ns_1.genblk1\[4\].dly_binary.genblk1\[3\].delay_unit VDD VSS edgedetect.dly_315ns_1.genblk1\[4\].dly_binary.signal_w\[3\]
+ edgedetect.dly_315ns_1.genblk1\[4\].dly_binary.signal_w\[4\] VSS VDD sky130_mm_sc_hd_dlyPoly5ns
XFILLER_13_125 VDD VSS VSS VDD sky130_fd_sc_hd__decap_6
Xclkgen.delay_155ns_2.genblk1\[4\].dly_binary.genblk1\[5\].delay_unit VDD VSS clkgen.delay_155ns_2.genblk1\[4\].dly_binary.signal_w\[5\]
+ clkgen.delay_155ns_2.genblk1\[4\].dly_binary.signal_w\[6\] VSS VDD sky130_mm_sc_hd_dlyPoly5ns
XFILLER_8_173 VSS VDD VSS VDD sky130_fd_sc_hd__decap_4
XFILLER_5_335 VDD VSS VSS VDD sky130_fd_sc_hd__decap_8
XFILLER_2_316 VSS VDD VSS VDD sky130_ef_sc_hd__decap_12
Xclkgen.delay_155ns_3.genblk1\[3\].dly_binary.genblk1\[1\].delay_unit VDD VSS clkgen.delay_155ns_3.genblk1\[3\].dly_binary.signal_w\[1\]
+ clkgen.delay_155ns_3.genblk1\[3\].dly_binary.signal_w\[2\] VSS VDD sky130_mm_sc_hd_dlyPoly5ns
Xedgedetect.dly_315ns_1.genblk1\[5\].dly_binary.genblk1\[10\].delay_unit VDD VSS edgedetect.dly_315ns_1.genblk1\[5\].dly_binary.signal_w\[10\]
+ edgedetect.dly_315ns_1.genblk1\[5\].dly_binary.signal_w\[11\] VSS VDD sky130_mm_sc_hd_dlyPoly5ns
XFILLER_7_216 VSS VDD VSS VDD sky130_fd_sc_hd__decap_4
Xclkgen.delay_155ns_3.genblk1\[4\].dly_binary.genblk1\[10\].delay_unit VDD VSS clkgen.delay_155ns_3.genblk1\[4\].dly_binary.signal_w\[10\]
+ clkgen.delay_155ns_3.genblk1\[4\].dly_binary.signal_w\[11\] VSS VDD sky130_mm_sc_hd_dlyPoly5ns
Xedgedetect.dly_315ns_1.genblk1\[4\].dly_binary.genblk1\[8\].delay_unit VDD VSS edgedetect.dly_315ns_1.genblk1\[4\].dly_binary.signal_w\[8\]
+ edgedetect.dly_315ns_1.genblk1\[4\].dly_binary.signal_w\[9\] VSS VDD sky130_mm_sc_hd_dlyPoly5ns
XFILLER_3_241 VDD VSS VSS VDD sky130_fd_sc_hd__decap_6
Xedgedetect.dly_315ns_1.genblk1\[4\].dly_binary.genblk1\[11\].delay_unit VDD VSS edgedetect.dly_315ns_1.genblk1\[4\].dly_binary.signal_w\[11\]
+ edgedetect.dly_315ns_1.genblk1\[4\].dly_binary.signal_w\[12\] VSS VDD sky130_mm_sc_hd_dlyPoly5ns
XFILLER_15_57 VSS VDD VSS VDD sky130_fd_sc_hd__decap_4
Xclkgen.delay_155ns_3.genblk1\[3\].dly_binary.genblk1\[6\].delay_unit VDD VSS clkgen.delay_155ns_3.genblk1\[3\].dly_binary.signal_w\[6\]
+ clkgen.delay_155ns_3.genblk1\[3\].dly_binary.signal_w\[7\] VSS VDD sky130_mm_sc_hd_dlyPoly5ns
XFILLER_0_222 VDD VSS VSS VDD sky130_fd_sc_hd__decap_8
XFILLER_11_3 VDD VSS VSS VDD sky130_fd_sc_hd__decap_6
Xclkgen.delay_155ns_1.genblk1\[4\].dly_binary.genblk1\[4\].delay_unit VDD VSS clkgen.delay_155ns_1.genblk1\[4\].dly_binary.signal_w\[4\]
+ clkgen.delay_155ns_1.genblk1\[4\].dly_binary.signal_w\[5\] VSS VDD sky130_mm_sc_hd_dlyPoly5ns
XANTENNA_edgedetect.dly_315ns_1.genblk1\[3\].dly_binary.and_bypass_switch_A_N edgedetect.dly_315ns_1.genblk1\[3\].dly_binary.bypass_in
+ VSS VDD VDD VSS sky130_fd_sc_hd__diode_2
Xclkgen.delay_155ns_2.genblk1\[3\].dly_binary.genblk1\[0\].delay_unit VDD VSS clkgen.delay_155ns_2.genblk1\[3\].dly_binary.signal_w\[0\]
+ clkgen.delay_155ns_2.genblk1\[3\].dly_binary.signal_w\[1\] VSS VDD sky130_mm_sc_hd_dlyPoly5ns
XFILLER_18_207 VSS VDD VSS VDD sky130_fd_sc_hd__decap_4
Xedgedetect.dly_315ns_1.genblk1\[5\].dly_binary.genblk1\[15\].delay_unit VDD VSS edgedetect.dly_315ns_1.genblk1\[5\].dly_binary.signal_w\[15\]
+ edgedetect.dly_315ns_1.genblk1\[5\].dly_binary.signal_w\[16\] VSS VDD sky130_mm_sc_hd_dlyPoly5ns
XFILLER_12_58 VDD VSS VSS VDD sky130_fd_sc_hd__decap_8
Xclkgen.delay_155ns_3.genblk1\[4\].dly_binary.genblk1\[15\].delay_unit VDD VSS clkgen.delay_155ns_3.genblk1\[4\].dly_binary.signal_w\[15\]
+ clkgen.delay_155ns_3.genblk1\[4\].dly_binary.signal_w\[16\] VSS VDD sky130_mm_sc_hd_dlyPoly5ns
XFILLER_2_328 VSS VDD VSS VDD sky130_ef_sc_hd__decap_12
XFILLER_17_284 VSS VDD VSS VDD sky130_fd_sc_hd__decap_4
Xclkgen.nor1 clkgen.enable_loop_in clkgen.delay_155ns_3.genblk1\[0\].dly_binary.in
+ clkgen.clk_dig_delayed_w VSS VDD VSS VDD sky130_fd_sc_hd__nor2b_1
XFILLER_11_235 VSS VDD VSS VDD sky130_fd_sc_hd__decap_4
XANTENNA_sampledly02_A sample_n_in VSS VDD VDD VSS sky130_fd_sc_hd__diode_2
Xclkgen.delay_155ns_1.genblk1\[4\].dly_binary.genblk1\[9\].delay_unit VDD VSS clkgen.delay_155ns_1.genblk1\[4\].dly_binary.signal_w\[9\]
+ clkgen.delay_155ns_1.genblk1\[4\].dly_binary.signal_w\[10\] VSS VDD sky130_mm_sc_hd_dlyPoly5ns
Xedgedetect.dly_315ns_1.genblk1\[3\].dly_binary.genblk1\[3\].delay_unit VDD VSS edgedetect.dly_315ns_1.genblk1\[3\].dly_binary.signal_w\[3\]
+ edgedetect.dly_315ns_1.genblk1\[3\].dly_binary.signal_w\[4\] VSS VDD sky130_mm_sc_hd_dlyPoly5ns
XFILLER_10_290 VSS VDD VSS VDD sky130_fd_sc_hd__decap_4
XFILLER_6_272 VDD VSS VSS VDD sky130_fd_sc_hd__decap_6
Xclkgen.delay_155ns_2.genblk1\[3\].dly_binary.genblk1\[5\].delay_unit VDD VSS clkgen.delay_155ns_2.genblk1\[3\].dly_binary.signal_w\[5\]
+ clkgen.delay_155ns_2.genblk1\[3\].dly_binary.signal_w\[6\] VSS VDD sky130_mm_sc_hd_dlyPoly5ns
XFILLER_19_187 VSS VDD VSS VDD sky130_fd_sc_hd__decap_4
XFILLER_3_275 VSS VDD VSS VDD sky130_fd_sc_hd__decap_4
Xclkgen.delay_155ns_3.genblk1\[2\].dly_binary.genblk1\[1\].delay_unit VDD VSS clkgen.delay_155ns_3.genblk1\[2\].dly_binary.signal_w\[1\]
+ clkgen.delay_155ns_3.genblk1\[2\].dly_binary.signal_w\[2\] VSS VDD sky130_mm_sc_hd_dlyPoly5ns
XFILLER_0_212 VSS VDD VSS VDD sky130_fd_sc_hd__decap_4
Xclkgen.delay_155ns_1.genblk1\[2\].control_invert dlycontrol1_in[2] clkgen.delay_155ns_1.bypass_enable_w\[2\]
+ VDD VSS VSS VDD sky130_fd_sc_hd__inv_2
Xedgedetect.dly_315ns_1.genblk1\[5\].dly_binary.genblk1\[22\].delay_unit VDD VSS edgedetect.dly_315ns_1.genblk1\[5\].dly_binary.signal_w\[22\]
+ edgedetect.dly_315ns_1.genblk1\[5\].dly_binary.signal_w\[23\] VSS VDD sky130_mm_sc_hd_dlyPoly5ns
XFILLER_12_171 VSS VDD VSS VDD sky130_fd_sc_hd__decap_4
XFILLER_8_164 VSS VDD VSS VDD sky130_fd_sc_hd__decap_4
XFILLER_8_120 VDD VSS VSS VDD sky130_fd_sc_hd__decap_8
XANTENNA_edgedetect.dly_315ns_1.enablebuffer_A enable_dlycontrol_in VSS VDD VDD VSS
+ sky130_fd_sc_hd__diode_2
XFILLER_5_112 VSS VDD VSS VDD sky130_fd_sc_hd__decap_4
XFILLER_14_244 VSS VDD VSS VDD sky130_fd_sc_hd__decap_4
XFILLER_14_211 VDD VSS VSS VDD sky130_fd_sc_hd__decap_6
XFILLER_2_115 VSS VDD VSS VDD sky130_fd_sc_hd__decap_4
Xedgedetect.dly_315ns_1.genblk1\[5\].dly_binary.genblk1\[27\].delay_unit VDD VSS edgedetect.dly_315ns_1.genblk1\[5\].dly_binary.signal_w\[27\]
+ edgedetect.dly_315ns_1.genblk1\[5\].dly_binary.signal_w\[28\] VSS VDD sky130_mm_sc_hd_dlyPoly5ns
Xclkgen.delay_155ns_1.genblk1\[3\].dly_binary.genblk1\[4\].delay_unit VDD VSS clkgen.delay_155ns_1.genblk1\[3\].dly_binary.signal_w\[4\]
+ clkgen.delay_155ns_1.genblk1\[3\].dly_binary.signal_w\[5\] VSS VDD sky130_mm_sc_hd_dlyPoly5ns
XFILLER_1_3 VSS VDD VSS VDD sky130_fd_sc_hd__decap_4
XANTENNA_clkgen.delay_155ns_1.genblk1\[1\].control_invert_A dlycontrol1_in[1] VSS
+ VDD VDD VSS sky130_fd_sc_hd__diode_2
XANTENNA_clkgen.delay_155ns_2.enablebuffer_A enable_dlycontrol_in VSS VDD VDD VSS
+ sky130_fd_sc_hd__diode_2
XANTENNA_inbuf_3_A ndecision_finish_in VSS VDD VDD VSS sky130_fd_sc_hd__diode_2
XFILLER_1_94 VSS VDD VSS VDD sky130_fd_sc_hd__decap_4
XFILLER_16_306 VSS VDD VSS VDD sky130_fd_sc_hd__decap_4
Xclkgen.delay_155ns_2.genblk1\[2\].dly_binary.genblk1\[0\].delay_unit VDD VSS clkgen.delay_155ns_2.genblk1\[2\].dly_binary.signal_w\[0\]
+ clkgen.delay_155ns_2.genblk1\[2\].dly_binary.signal_w\[1\] VSS VDD sky130_mm_sc_hd_dlyPoly5ns
XFILLER_19_90 VDD VSS VSS VDD sky130_fd_sc_hd__decap_3
Xclkgen.clkdig_inverter clkgen.delay_155ns_1.genblk1\[4\].dly_binary.out clkgen.clk_dig_out
+ VDD VSS VSS VDD sky130_fd_sc_hd__inv_2
XFILLER_15_15 VSS VDD VSS VDD sky130_fd_sc_hd__decap_4
XFILLER_16_125 VSS VDD VSS VDD sky130_fd_sc_hd__decap_4
XANTENNA_clkgen.delay_155ns_2.genblk1\[0\].control_invert_A dlycontrol2_in[0] VSS
+ VDD VDD VSS sky130_fd_sc_hd__diode_2
XPHY_0 VDD VSS VSS VDD sky130_fd_sc_hd__decap_3
XFILLER_7_93 VSS VDD VSS VDD sky130_fd_sc_hd__decap_4
XFILLER_3_18 VSS VDD VSS VDD sky130_fd_sc_hd__decap_4
XFILLER_12_16 VSS VDD VSS VDD sky130_fd_sc_hd__decap_4
XFILLER_17_297 VSS VDD VSS VDD sky130_fd_sc_hd__decap_4
Xedgedetect.dly_315ns_1.genblk1\[2\].dly_binary.genblk1\[3\].delay_unit VDD VSS edgedetect.dly_315ns_1.genblk1\[2\].dly_binary.signal_w\[3\]
+ edgedetect.dly_315ns_1.genblk1\[2\].dly_binary.signal_w\[4\] VSS VDD sky130_mm_sc_hd_dlyPoly5ns
XFILLER_5_146 VSS VDD VSS VDD sky130_fd_sc_hd__decap_4
XFILLER_4_94 VDD VSS VSS VDD sky130_fd_sc_hd__decap_6
Xclkgen.delay_155ns_3.genblk1\[1\].dly_binary.genblk1\[1\].delay_unit VDD VSS clkgen.delay_155ns_3.genblk1\[1\].dly_binary.signal_w\[1\]
+ clkgen.delay_155ns_3.genblk1\[1\].dly_binary.signal_w\[2\] VSS VDD sky130_mm_sc_hd_dlyPoly5ns
XFILLER_19_315 VSS VDD VSS VDD sky130_fd_sc_hd__decap_4
XFILLER_3_222 VSS VDD VSS VDD sky130_fd_sc_hd__decap_4
XFILLER_15_181 VSS VDD VSS VDD sky130_fd_sc_hd__decap_4
Xedgedetect.dly_315ns_1.genblk1\[0\].dly_binary.out_mux VSS VDD edgedetect.dly_315ns_1.genblk1\[0\].dly_binary.bypass_in
+ edgedetect.dly_315ns_1.genblk1\[0\].dly_binary.in edgedetect.dly_315ns_1.genblk1\[0\].dly_binary.signal_w\[1\]
+ edgedetect.dly_315ns_1.genblk1\[0\].dly_binary.out VSS VDD sky130_fd_sc_hd__mux2_1
XPHY_1 VDD VSS VSS VDD sky130_fd_sc_hd__decap_3
Xedgedetect.dly_315ns_1.genblk1\[2\].dly_binary.out_mux VSS VDD edgedetect.dly_315ns_1.genblk1\[2\].dly_binary.bypass_in
+ edgedetect.dly_315ns_1.genblk1\[1\].dly_binary.out edgedetect.dly_315ns_1.genblk1\[2\].dly_binary.signal_w\[4\]
+ edgedetect.dly_315ns_1.genblk1\[2\].dly_binary.out VSS VDD sky130_fd_sc_hd__mux2_1
Xedgedetect.dly_315ns_1.genblk1\[0\].dly_binary.and_bypass_switch edgedetect.dly_315ns_1.genblk1\[0\].dly_binary.signal_w\[0\]
+ edgedetect.dly_315ns_1.genblk1\[0\].dly_binary.bypass_in edgedetect.dly_315ns_1.genblk1\[0\].dly_binary.in
+ VSS VDD VSS VDD sky130_fd_sc_hd__and2b_1
Xinbuf_1 VSS VDD edgedetect.ena_in ena_in VSS VDD sky130_fd_sc_hd__buf_1
Xedgedetect.dly_315ns_1.genblk1\[4\].dly_binary.out_mux VSS VDD edgedetect.dly_315ns_1.genblk1\[4\].dly_binary.bypass_in
+ edgedetect.dly_315ns_1.genblk1\[3\].dly_binary.out edgedetect.dly_315ns_1.genblk1\[4\].dly_binary.signal_w\[16\]
+ edgedetect.dly_315ns_1.genblk1\[4\].dly_binary.out VSS VDD sky130_fd_sc_hd__mux2_1
XFILLER_5_136 VSS VDD VSS VDD sky130_fd_sc_hd__decap_4
Xsampledly31 VDD VSS sample_p_3 sample_p_4 VSS VDD sky130_fd_sc_hd__dlymetal6s6s_1
Xclkgen.delay_155ns_2.genblk1\[1\].dly_binary.genblk1\[0\].delay_unit VDD VSS clkgen.delay_155ns_2.genblk1\[1\].dly_binary.signal_w\[0\]
+ clkgen.delay_155ns_2.genblk1\[1\].dly_binary.signal_w\[1\] VSS VDD sky130_mm_sc_hd_dlyPoly5ns
XFILLER_2_106 VSS VDD VSS VDD sky130_fd_sc_hd__decap_4
XFILLER_1_194 VSS VDD VSS VDD sky130_fd_sc_hd__decap_4
Xedgedetect.dly_315ns_1.genblk1\[2\].bypass_enable VDD VSS edgedetect.dly_315ns_1.genblk1\[2\].dly_binary.bypass_in
+ edgedetect.dly_315ns_1.bypass_enable_w\[2\] edgedetect.dly_315ns_1.enable_dlycontrol_w
+ VSS VDD sky130_fd_sc_hd__and2_1
Xclkgen.delay_155ns_2.genblk1\[3\].control_invert dlycontrol2_in[3] clkgen.delay_155ns_2.bypass_enable_w\[3\]
+ VDD VSS VSS VDD sky130_fd_sc_hd__inv_2
XANTENNA_clkgen.delay_155ns_3.genblk1\[4\].dly_binary.out_mux_A0 clkgen.delay_155ns_3.genblk1\[4\].dly_binary.signal_w\[16\]
+ VSS VDD VDD VSS sky130_fd_sc_hd__diode_2
XFILLER_1_63 VDD VSS VSS VDD sky130_fd_sc_hd__decap_6
Xclkgen.delay_155ns_1.genblk1\[4\].dly_binary.genblk1\[10\].delay_unit VDD VSS clkgen.delay_155ns_1.genblk1\[4\].dly_binary.signal_w\[10\]
+ clkgen.delay_155ns_1.genblk1\[4\].dly_binary.signal_w\[11\] VSS VDD sky130_mm_sc_hd_dlyPoly5ns
XANTENNA_clkgen.delay_155ns_2.genblk1\[4\].dly_binary.and_bypass_switch_A_N clkgen.delay_155ns_2.genblk1\[4\].dly_binary.bypass_in
+ VSS VDD VDD VSS sky130_fd_sc_hd__diode_2
XFILLER_10_94 VDD VSS VSS VDD sky130_fd_sc_hd__decap_6
XFILLER_15_171 VSS VDD VSS VDD sky130_fd_sc_hd__decap_4
XPHY_2 VDD VSS VSS VDD sky130_fd_sc_hd__decap_3