* NGSPICE file created from adc_vcm_generator.ext - technology: sky130A

.subckt sky130_fd_sc_hd__inv_1 A VGND VPWR Y VNB VPB
X0 Y A VGND VNB sky130_fd_pr__nfet_01v8 ad=1.69e+11p pd=1.82e+06u as=1.69e+11p ps=1.82e+06u w=650000u l=150000u
X1 Y A VPWR VPB sky130_fd_pr__pfet_01v8_hvt ad=2.6e+11p pd=2.52e+06u as=2.6e+11p ps=2.52e+06u w=1e+06u l=150000u
C0 VPWR VGND 0.03fF
C1 VPB Y 0.02fF
C2 VPB VPWR 0.06fF
C3 A VGND 0.04fF
C4 Y VPWR 0.13fF
C5 A VPB 0.07fF
C6 A Y 0.05fF
C7 VPB VGND 0.01fF
C8 A VPWR 0.05fF
C9 Y VGND 0.10fF
C10 VGND VNB 0.24fF
C11 Y VNB 0.08fF
C12 VPWR VNB 0.21fF
C13 A VNB 0.12fF
C14 VPB VNB 0.34fF
.ends

.subckt pfet_01v8_w500_l500_nf2 a_n29_0# a_129_0# a_n129_n26# w_n224_n36# a_n187_0#
+ a_29_n26# VSUBS
X0 a_129_0# a_29_n26# a_n29_0# w_n224_n36# sky130_fd_pr__pfet_01v8 ad=1.45e+11p pd=1.58e+06u as=1.45e+11p ps=1.58e+06u w=500000u l=500000u
X1 a_n29_0# a_n129_n26# a_n187_0# w_n224_n36# sky130_fd_pr__pfet_01v8 ad=0p pd=0u as=1.45e+11p ps=1.58e+06u w=500000u l=500000u
C0 a_29_n26# w_n224_n36# 0.06fF
C1 a_n129_n26# a_n29_0# 0.00fF
C2 a_n129_n26# a_n187_0# 0.00fF
C3 a_29_n26# a_129_0# 0.00fF
C4 w_n224_n36# a_129_0# 0.00fF
C5 a_29_n26# a_n129_n26# 0.01fF
C6 a_n29_0# a_n187_0# 0.02fF
C7 a_n129_n26# w_n224_n36# 0.06fF
C8 a_29_n26# a_n29_0# 0.00fF
C9 w_n224_n36# a_n29_0# 0.00fF
C10 w_n224_n36# a_n187_0# 0.00fF
C11 a_n29_0# a_129_0# 0.02fF
C12 a_129_0# VSUBS 0.04fF
C13 a_n29_0# VSUBS 0.02fF
C14 a_n187_0# VSUBS 0.04fF
C15 a_29_n26# VSUBS 0.08fF
C16 a_n129_n26# VSUBS 0.08fF
C17 w_n224_n36# VSUBS 0.23fF
.ends

.subckt sky130_fd_sc_hd__buf_4 A VGND VPWR X VNB VPB a_27_47#
X0 VPWR a_27_47# X VPB sky130_fd_pr__pfet_01v8_hvt ad=8e+11p pd=7.6e+06u as=5.4e+11p ps=5.08e+06u w=1e+06u l=150000u
X1 X a_27_47# VPWR VPB sky130_fd_pr__pfet_01v8_hvt ad=0p pd=0u as=0p ps=0u w=1e+06u l=150000u
X2 VPWR a_27_47# X VPB sky130_fd_pr__pfet_01v8_hvt ad=0p pd=0u as=0p ps=0u w=1e+06u l=150000u
X3 X a_27_47# VPWR VPB sky130_fd_pr__pfet_01v8_hvt ad=0p pd=0u as=0p ps=0u w=1e+06u l=150000u
X4 X a_27_47# VGND VNB sky130_fd_pr__nfet_01v8 ad=3.51e+11p pd=3.68e+06u as=5.2e+11p ps=5.5e+06u w=650000u l=150000u
X5 X a_27_47# VGND VNB sky130_fd_pr__nfet_01v8 ad=0p pd=0u as=0p ps=0u w=650000u l=150000u
X6 VGND a_27_47# X VNB sky130_fd_pr__nfet_01v8 ad=0p pd=0u as=0p ps=0u w=650000u l=150000u
X7 VGND a_27_47# X VNB sky130_fd_pr__nfet_01v8 ad=0p pd=0u as=0p ps=0u w=650000u l=150000u
X8 VPWR A a_27_47# VPB sky130_fd_pr__pfet_01v8_hvt ad=0p pd=0u as=2.6e+11p ps=2.52e+06u w=1e+06u l=150000u
X9 VGND A a_27_47# VNB sky130_fd_pr__nfet_01v8 ad=0p pd=0u as=1.69e+11p ps=1.82e+06u w=650000u l=150000u
C0 VGND a_27_47# 0.21fF
C1 A X 0.00fF
C2 VPWR a_27_47# 0.26fF
C3 VGND VPWR 0.07fF
C4 a_27_47# A 0.20fF
C5 VPB X 0.02fF
C6 VGND A 0.02fF
C7 VPWR A 0.02fF
C8 VPB a_27_47# 0.20fF
C9 VPB VGND 0.01fF
C10 VPB VPWR 0.08fF
C11 a_27_47# X 0.29fF
C12 VGND X 0.23fF
C13 VPB A 0.06fF
C14 VPWR X 0.31fF
C15 VGND VNB 0.31fF
C16 X VNB -0.24fF
C17 VPWR VNB 0.24fF
C18 A VNB 0.11fF
C19 VPB VNB 0.60fF
C20 a_27_47# VNB 0.29fF
.ends

.subckt sky130_fd_sc_hd__dlymetal6s6s_1 A VGND VPWR X a_240_47# VNB VPB a_629_47#
+ a_523_47# a_346_47# a_63_47#
X0 X a_629_47# VGND VNB sky130_fd_pr__nfet_01v8 ad=1.69e+11p pd=1.82e+06u as=5.82e+11p ps=5.85e+06u w=650000u l=150000u
X1 a_523_47# a_346_47# VGND VNB sky130_fd_pr__nfet_01v8 ad=1.69e+11p pd=1.82e+06u as=0p ps=0u w=650000u l=150000u
X2 VGND a_240_47# a_346_47# VNB sky130_fd_pr__nfet_01v8 ad=0p pd=0u as=1.092e+11p ps=1.36e+06u w=420000u l=150000u
X3 a_240_47# a_63_47# VGND VNB sky130_fd_pr__nfet_01v8 ad=1.69e+11p pd=1.82e+06u as=0p ps=0u w=650000u l=150000u
X4 VPWR a_240_47# a_346_47# VPB sky130_fd_pr__pfet_01v8_hvt ad=8.445e+11p pd=7.95e+06u as=1.092e+11p ps=1.36e+06u w=420000u l=150000u
X5 VGND A a_63_47# VNB sky130_fd_pr__nfet_01v8 ad=0p pd=0u as=1.092e+11p ps=1.36e+06u w=420000u l=150000u
X6 VPWR A a_63_47# VPB sky130_fd_pr__pfet_01v8_hvt ad=0p pd=0u as=1.092e+11p ps=1.36e+06u w=420000u l=150000u
X7 VPWR a_523_47# a_629_47# VPB sky130_fd_pr__pfet_01v8_hvt ad=0p pd=0u as=1.092e+11p ps=1.36e+06u w=420000u l=150000u
X8 VGND a_523_47# a_629_47# VNB sky130_fd_pr__nfet_01v8 ad=0p pd=0u as=1.092e+11p ps=1.36e+06u w=420000u l=150000u
X9 a_523_47# a_346_47# VPWR VPB sky130_fd_pr__pfet_01v8_hvt ad=2.6e+11p pd=2.52e+06u as=0p ps=0u w=1e+06u l=150000u
X10 a_240_47# a_63_47# VPWR VPB sky130_fd_pr__pfet_01v8_hvt ad=2.6e+11p pd=2.52e+06u as=0p ps=0u w=1e+06u l=150000u
X11 X a_629_47# VPWR VPB sky130_fd_pr__pfet_01v8_hvt ad=2.6e+11p pd=2.52e+06u as=0p ps=0u w=1e+06u l=150000u
C0 A a_346_47# 0.00fF
C1 VGND X 0.09fF
C2 A VGND 0.02fF
C3 a_63_47# X 0.00fF
C4 A a_63_47# 0.27fF
C5 a_346_47# VGND 0.13fF
C6 a_346_47# a_63_47# 0.00fF
C7 a_240_47# a_629_47# 0.00fF
C8 a_63_47# VGND 0.16fF
C9 VPWR a_240_47# 0.10fF
C10 a_240_47# a_523_47# 0.02fF
C11 VPB a_240_47# 0.15fF
C12 a_240_47# X 0.00fF
C13 A a_240_47# 0.02fF
C14 VPWR a_629_47# 0.15fF
C15 a_346_47# a_240_47# 0.31fF
C16 a_629_47# a_523_47# 0.32fF
C17 a_240_47# VGND 0.10fF
C18 a_240_47# a_63_47# 0.17fF
C19 VPB a_629_47# 0.07fF
C20 VPWR a_523_47# 0.09fF
C21 a_629_47# X 0.14fF
C22 A a_629_47# 0.00fF
C23 VPB VPWR 0.12fF
C24 a_346_47# a_629_47# 0.00fF
C25 VPB a_523_47# 0.15fF
C26 VGND a_629_47# 0.14fF
C27 a_63_47# a_629_47# 0.00fF
C28 VPWR X 0.10fF
C29 A VPWR 0.02fF
C30 X a_523_47# 0.01fF
C31 A a_523_47# 0.00fF
C32 a_346_47# VPWR 0.14fF
C33 VPWR VGND 0.09fF
C34 a_346_47# a_523_47# 0.16fF
C35 VPWR a_63_47# 0.16fF
C36 VPB X 0.03fF
C37 VGND a_523_47# 0.09fF
C38 A VPB 0.12fF
C39 a_63_47# a_523_47# 0.00fF
C40 A X 0.00fF
C41 VPB a_346_47# 0.07fF
C42 VPB VGND 0.01fF
C43 VPB a_63_47# 0.07fF
C44 a_346_47# X 0.00fF
C45 VGND VNB 0.46fF
C46 X VNB 0.04fF
C47 VPWR VNB 0.34fF
C48 A VNB 0.18fF
C49 VPB VNB 0.96fF
C50 a_629_47# VNB 0.03fF
C51 a_523_47# VNB 0.07fF
C52 a_346_47# VNB -0.00fF
C53 a_240_47# VNB 0.07fF
C54 a_63_47# VNB 0.05fF
.ends

.subckt adc_noise_decoup_cell1 nmoscap_top nmoscap_bot mimcap_top mimcap_bot pwell
X0 nmoscap_top nmoscap_bot pwell sky130_fd_pr__cap_var_lvt w=1.64e+07u l=1.6e+07u
X1 mimcap_top mimcap_bot sky130_fd_pr__cap_mim_m3_1 l=1.72e+07u w=1.72e+07u
C0 nmoscap_bot mimcap_top 0.32fF
C1 nmoscap_top nmoscap_bot 303.08fF
C2 mimcap_bot nmoscap_bot 34.51fF
C3 nmoscap_top mimcap_top 2.71fF
C4 mimcap_bot mimcap_top 33.65fF
C5 mimcap_bot nmoscap_top 30.43fF
C6 mimcap_top pwell 1.83fF
C7 mimcap_bot pwell 0.60fF
C8 nmoscap_top pwell -17.39fF
C9 nmoscap_bot pwell 31.87fF
.ends

.subckt nfet_01v8_w500_l500_nf2 a_n129_n76# a_n29_n50# a_n187_n50# a_29_n76# a_129_n50#
+ VSUBS
X0 a_129_n50# a_29_n76# a_n29_n50# VSUBS sky130_fd_pr__nfet_01v8 ad=1.45e+11p pd=1.58e+06u as=1.45e+11p ps=1.58e+06u w=500000u l=500000u
X1 a_n29_n50# a_n129_n76# a_n187_n50# VSUBS sky130_fd_pr__nfet_01v8 ad=0p pd=0u as=1.45e+11p ps=1.58e+06u w=500000u l=500000u
C0 a_n129_n76# a_n29_n50# 0.00fF
C1 a_29_n76# a_n129_n76# 0.01fF
C2 a_n187_n50# a_n129_n76# 0.00fF
C3 a_29_n76# a_n29_n50# 0.00fF
C4 a_n29_n50# a_129_n50# 0.02fF
C5 a_n187_n50# a_n29_n50# 0.02fF
C6 a_29_n76# a_129_n50# 0.00fF
C7 a_129_n50# VSUBS 0.04fF
C8 a_n29_n50# VSUBS 0.02fF
C9 a_n187_n50# VSUBS 0.04fF
C10 a_29_n76# VSUBS 0.14fF
C11 a_n129_n76# VSUBS 0.14fF
.ends

.subckt sky130_fd_sc_hd__nand2_1 A B VGND VPWR Y VNB VPB a_113_47#
X0 VPWR A Y VPB sky130_fd_pr__pfet_01v8_hvt ad=5.2e+11p pd=5.04e+06u as=2.7e+11p ps=2.54e+06u w=1e+06u l=150000u
X1 Y A a_113_47# VNB sky130_fd_pr__nfet_01v8 ad=1.69e+11p pd=1.82e+06u as=1.755e+11p ps=1.84e+06u w=650000u l=150000u
X2 a_113_47# B VGND VNB sky130_fd_pr__nfet_01v8 ad=0p pd=0u as=1.69e+11p ps=1.82e+06u w=650000u l=150000u
X3 Y B VPWR VPB sky130_fd_pr__pfet_01v8_hvt ad=0p pd=0u as=0p ps=0u w=1e+06u l=150000u
C0 VPWR A 0.06fF
C1 VPB VPWR 0.05fF
C2 Y A 0.12fF
C3 Y VPB 0.01fF
C4 VGND A 0.01fF
C5 VPB VGND 0.01fF
C6 Y VPWR 0.22fF
C7 VGND VPWR 0.03fF
C8 VPWR a_113_47# 0.00fF
C9 Y VGND 0.16fF
C10 Y a_113_47# 0.01fF
C11 VGND a_113_47# 0.00fF
C12 B A 0.05fF
C13 VPB B 0.05fF
C14 B VPWR 0.06fF
C15 VPB A 0.05fF
C16 Y B 0.05fF
C17 B VGND 0.07fF
C18 VGND VNB 0.21fF
C19 Y VNB -0.07fF
C20 VPWR VNB 0.22fF
C21 A VNB 0.12fF
C22 B VNB 0.12fF
C23 VPB VNB 0.34fF
.ends

.subckt adc_vcm_generator VDD VSS clk vcm
Xsky130_fd_sc_hd__inv_1_4 clk VSS VDD sky130_fd_sc_hd__inv_1_4/Y VSS VDD sky130_fd_sc_hd__inv_1
Xpfet_01v8_w500_l500_nf2_0 mimtop2 vcm phi1_n VDD vcm phi1_n VSS pfet_01v8_w500_l500_nf2
Xpfet_01v8_w500_l500_nf2_1 mimtop1 vcm phi1_n VDD vcm phi1_n VSS pfet_01v8_w500_l500_nf2
Xsky130_fd_sc_hd__buf_4_0 sky130_fd_sc_hd__inv_1_2/A VSS VDD phi1 VSS VDD sky130_fd_sc_hd__buf_4_0/a_27_47#
+ sky130_fd_sc_hd__buf_4
Xpfet_01v8_w500_l500_nf2_2 mimtop2 mimbot1 phi2_n VDD mimbot1 phi2_n VSS pfet_01v8_w500_l500_nf2
Xsky130_fd_sc_hd__buf_4_1 sky130_fd_sc_hd__inv_1_2/Y VSS VDD phi1_n VSS VDD sky130_fd_sc_hd__buf_4_1/a_27_47#
+ sky130_fd_sc_hd__buf_4
Xpfet_01v8_w500_l500_nf2_3 VDD mimtop1 phi2_n VDD mimtop1 phi2_n VSS pfet_01v8_w500_l500_nf2
Xpfet_01v8_w500_l500_nf2_4 mimbot1 VSS phi1_n VDD VSS phi1_n VSS pfet_01v8_w500_l500_nf2
Xsky130_fd_sc_hd__buf_4_2 sky130_fd_sc_hd__inv_1_3/A VSS VDD phi2 VSS VDD sky130_fd_sc_hd__buf_4_2/a_27_47#
+ sky130_fd_sc_hd__buf_4
Xsky130_fd_sc_hd__buf_4_3 sky130_fd_sc_hd__inv_1_3/Y VSS VDD phi2_n VSS VDD sky130_fd_sc_hd__buf_4_3/a_27_47#
+ sky130_fd_sc_hd__buf_4
Xsky130_fd_sc_hd__dlymetal6s6s_1_0 sky130_fd_sc_hd__nand2_1_0/Y VSS VDD sky130_fd_sc_hd__dlymetal6s6s_1_2/A
+ sky130_fd_sc_hd__dlymetal6s6s_1_0/a_240_47# VSS VDD sky130_fd_sc_hd__dlymetal6s6s_1_0/a_629_47#
+ sky130_fd_sc_hd__dlymetal6s6s_1_0/a_523_47# sky130_fd_sc_hd__dlymetal6s6s_1_0/a_346_47#
+ sky130_fd_sc_hd__dlymetal6s6s_1_0/a_63_47# sky130_fd_sc_hd__dlymetal6s6s_1
Xsky130_fd_sc_hd__dlymetal6s6s_1_1 sky130_fd_sc_hd__nand2_1_1/Y VSS VDD sky130_fd_sc_hd__dlymetal6s6s_1_4/A
+ sky130_fd_sc_hd__dlymetal6s6s_1_1/a_240_47# VSS VDD sky130_fd_sc_hd__dlymetal6s6s_1_1/a_629_47#
+ sky130_fd_sc_hd__dlymetal6s6s_1_1/a_523_47# sky130_fd_sc_hd__dlymetal6s6s_1_1/a_346_47#
+ sky130_fd_sc_hd__dlymetal6s6s_1_1/a_63_47# sky130_fd_sc_hd__dlymetal6s6s_1
Xsky130_fd_sc_hd__dlymetal6s6s_1_2 sky130_fd_sc_hd__dlymetal6s6s_1_2/A VSS VDD sky130_fd_sc_hd__dlymetal6s6s_1_3/A
+ sky130_fd_sc_hd__dlymetal6s6s_1_2/a_240_47# VSS VDD sky130_fd_sc_hd__dlymetal6s6s_1_2/a_629_47#
+ sky130_fd_sc_hd__dlymetal6s6s_1_2/a_523_47# sky130_fd_sc_hd__dlymetal6s6s_1_2/a_346_47#
+ sky130_fd_sc_hd__dlymetal6s6s_1_2/a_63_47# sky130_fd_sc_hd__dlymetal6s6s_1
Xsky130_fd_sc_hd__dlymetal6s6s_1_3 sky130_fd_sc_hd__dlymetal6s6s_1_3/A VSS VDD sky130_fd_sc_hd__inv_1_0/A
+ sky130_fd_sc_hd__dlymetal6s6s_1_3/a_240_47# VSS VDD sky130_fd_sc_hd__dlymetal6s6s_1_3/a_629_47#
+ sky130_fd_sc_hd__dlymetal6s6s_1_3/a_523_47# sky130_fd_sc_hd__dlymetal6s6s_1_3/a_346_47#
+ sky130_fd_sc_hd__dlymetal6s6s_1_3/a_63_47# sky130_fd_sc_hd__dlymetal6s6s_1
Xsky130_fd_sc_hd__dlymetal6s6s_1_5 sky130_fd_sc_hd__dlymetal6s6s_1_5/A VSS VDD sky130_fd_sc_hd__inv_1_1/A
+ sky130_fd_sc_hd__dlymetal6s6s_1_5/a_240_47# VSS VDD sky130_fd_sc_hd__dlymetal6s6s_1_5/a_629_47#
+ sky130_fd_sc_hd__dlymetal6s6s_1_5/a_523_47# sky130_fd_sc_hd__dlymetal6s6s_1_5/a_346_47#
+ sky130_fd_sc_hd__dlymetal6s6s_1_5/a_63_47# sky130_fd_sc_hd__dlymetal6s6s_1
Xsky130_fd_sc_hd__dlymetal6s6s_1_4 sky130_fd_sc_hd__dlymetal6s6s_1_4/A VSS VDD sky130_fd_sc_hd__dlymetal6s6s_1_5/A
+ sky130_fd_sc_hd__dlymetal6s6s_1_4/a_240_47# VSS VDD sky130_fd_sc_hd__dlymetal6s6s_1_4/a_629_47#
+ sky130_fd_sc_hd__dlymetal6s6s_1_4/a_523_47# sky130_fd_sc_hd__dlymetal6s6s_1_4/a_346_47#
+ sky130_fd_sc_hd__dlymetal6s6s_1_4/a_63_47# sky130_fd_sc_hd__dlymetal6s6s_1
Xadc_noise_decoup_cell1_0[0] VDD VSS VDD VSS VSS adc_noise_decoup_cell1
Xadc_noise_decoup_cell1_0[1] VDD VSS VDD VSS VSS adc_noise_decoup_cell1
Xadc_noise_decoup_cell1_0[2] VDD VSS VDD VSS VSS adc_noise_decoup_cell1
Xadc_noise_decoup_cell1_1[0|0] vcm VSS mimtop2 VSS VSS adc_noise_decoup_cell1
Xadc_noise_decoup_cell1_1[1|0] vcm VSS mimtop2 VSS VSS adc_noise_decoup_cell1
Xadc_noise_decoup_cell1_1[2|0] vcm VSS mimtop2 VSS VSS adc_noise_decoup_cell1
Xadc_noise_decoup_cell1_1[3|0] vcm VSS mimtop2 VSS VSS adc_noise_decoup_cell1
Xadc_noise_decoup_cell1_1[4|0] vcm VSS mimtop2 VSS VSS adc_noise_decoup_cell1
Xadc_noise_decoup_cell1_1[5|0] vcm VSS mimtop2 VSS VSS adc_noise_decoup_cell1
Xadc_noise_decoup_cell1_1[6|0] vcm VSS mimtop2 VSS VSS adc_noise_decoup_cell1
Xadc_noise_decoup_cell1_1[7|0] vcm VSS mimtop2 VSS VSS adc_noise_decoup_cell1
Xadc_noise_decoup_cell1_1[0|1] vcm VSS mimtop2 VSS VSS adc_noise_decoup_cell1
Xadc_noise_decoup_cell1_1[1|1] vcm VSS mimtop2 VSS VSS adc_noise_decoup_cell1
Xadc_noise_decoup_cell1_1[2|1] vcm VSS mimtop2 VSS VSS adc_noise_decoup_cell1
Xadc_noise_decoup_cell1_1[3|1] vcm VSS mimtop2 VSS VSS adc_noise_decoup_cell1
Xadc_noise_decoup_cell1_1[4|1] vcm VSS mimtop2 VSS VSS adc_noise_decoup_cell1
Xadc_noise_decoup_cell1_1[5|1] vcm VSS mimtop2 VSS VSS adc_noise_decoup_cell1
Xadc_noise_decoup_cell1_1[6|1] vcm VSS mimtop2 VSS VSS adc_noise_decoup_cell1
Xadc_noise_decoup_cell1_1[7|1] vcm VSS mimtop2 VSS VSS adc_noise_decoup_cell1
Xadc_noise_decoup_cell1_1[0|2] vcm VSS mimtop2 VSS VSS adc_noise_decoup_cell1
Xadc_noise_decoup_cell1_1[1|2] vcm VSS mimtop2 VSS VSS adc_noise_decoup_cell1
Xadc_noise_decoup_cell1_1[2|2] vcm VSS mimtop2 VSS VSS adc_noise_decoup_cell1
Xadc_noise_decoup_cell1_1[3|2] vcm VSS mimtop2 VSS VSS adc_noise_decoup_cell1
Xadc_noise_decoup_cell1_1[4|2] vcm VSS mimtop2 VSS VSS adc_noise_decoup_cell1
Xadc_noise_decoup_cell1_1[5|2] vcm VSS mimtop2 VSS VSS adc_noise_decoup_cell1
Xadc_noise_decoup_cell1_1[6|2] vcm VSS mimtop2 VSS VSS adc_noise_decoup_cell1
Xadc_noise_decoup_cell1_1[7|2] vcm VSS mimtop2 VSS VSS adc_noise_decoup_cell1
Xadc_noise_decoup_cell1_1[0|3] vcm VSS mimtop2 VSS VSS adc_noise_decoup_cell1
Xadc_noise_decoup_cell1_1[1|3] vcm VSS mimtop2 VSS VSS adc_noise_decoup_cell1
Xadc_noise_decoup_cell1_1[2|3] vcm VSS mimtop2 VSS VSS adc_noise_decoup_cell1
Xadc_noise_decoup_cell1_1[3|3] vcm VSS mimtop2 VSS VSS adc_noise_decoup_cell1
Xadc_noise_decoup_cell1_1[4|3] vcm VSS mimtop2 VSS VSS adc_noise_decoup_cell1
Xadc_noise_decoup_cell1_1[5|3] vcm VSS mimtop2 VSS VSS adc_noise_decoup_cell1
Xadc_noise_decoup_cell1_1[6|3] vcm VSS mimtop2 VSS VSS adc_noise_decoup_cell1
Xadc_noise_decoup_cell1_1[7|3] vcm VSS mimtop2 VSS VSS adc_noise_decoup_cell1
Xadc_noise_decoup_cell1_1[0|4] vcm VSS mimtop2 VSS VSS adc_noise_decoup_cell1
Xadc_noise_decoup_cell1_1[1|4] vcm VSS mimtop2 VSS VSS adc_noise_decoup_cell1
Xadc_noise_decoup_cell1_1[2|4] vcm VSS mimtop2 VSS VSS adc_noise_decoup_cell1
Xadc_noise_decoup_cell1_1[3|4] vcm VSS mimtop2 VSS VSS adc_noise_decoup_cell1
Xadc_noise_decoup_cell1_1[4|4] vcm VSS mimtop2 VSS VSS adc_noise_decoup_cell1
Xadc_noise_decoup_cell1_1[5|4] vcm VSS mimtop2 VSS VSS adc_noise_decoup_cell1
Xadc_noise_decoup_cell1_1[6|4] vcm VSS mimtop2 VSS VSS adc_noise_decoup_cell1
Xadc_noise_decoup_cell1_1[7|4] vcm VSS mimtop2 VSS VSS adc_noise_decoup_cell1
Xadc_noise_decoup_cell1_3[0|0] vcm VSS mimtop1 mimbot1 VSS adc_noise_decoup_cell1
Xadc_noise_decoup_cell1_3[1|0] vcm VSS mimtop1 mimbot1 VSS adc_noise_decoup_cell1
Xadc_noise_decoup_cell1_3[2|0] vcm VSS mimtop1 mimbot1 VSS adc_noise_decoup_cell1
Xadc_noise_decoup_cell1_3[3|0] vcm VSS mimtop1 mimbot1 VSS adc_noise_decoup_cell1
Xadc_noise_decoup_cell1_3[4|0] vcm VSS mimtop1 mimbot1 VSS adc_noise_decoup_cell1
Xadc_noise_decoup_cell1_3[5|0] vcm VSS mimtop1 mimbot1 VSS adc_noise_decoup_cell1
Xadc_noise_decoup_cell1_3[6|0] vcm VSS mimtop1 mimbot1 VSS adc_noise_decoup_cell1
Xadc_noise_decoup_cell1_3[7|0] vcm VSS mimtop1 mimbot1 VSS adc_noise_decoup_cell1
Xadc_noise_decoup_cell1_3[0|1] vcm VSS mimtop1 mimbot1 VSS adc_noise_decoup_cell1
Xadc_noise_decoup_cell1_3[1|1] vcm VSS mimtop1 mimbot1 VSS adc_noise_decoup_cell1
Xadc_noise_decoup_cell1_3[2|1] vcm VSS mimtop1 mimbot1 VSS adc_noise_decoup_cell1
Xadc_noise_decoup_cell1_3[3|1] vcm VSS mimtop1 mimbot1 VSS adc_noise_decoup_cell1
Xadc_noise_decoup_cell1_3[4|1] vcm VSS mimtop1 mimbot1 VSS adc_noise_decoup_cell1
Xadc_noise_decoup_cell1_3[5|1] vcm VSS mimtop1 mimbot1 VSS adc_noise_decoup_cell1
Xadc_noise_decoup_cell1_3[6|1] vcm VSS mimtop1 mimbot1 VSS adc_noise_decoup_cell1
Xadc_noise_decoup_cell1_3[7|1] vcm VSS mimtop1 mimbot1 VSS adc_noise_decoup_cell1
Xadc_noise_decoup_cell1_3[0|2] vcm VSS mimtop1 mimbot1 VSS adc_noise_decoup_cell1
Xadc_noise_decoup_cell1_3[1|2] vcm VSS mimtop1 mimbot1 VSS adc_noise_decoup_cell1
Xadc_noise_decoup_cell1_3[2|2] vcm VSS mimtop1 mimbot1 VSS adc_noise_decoup_cell1
Xadc_noise_decoup_cell1_3[3|2] vcm VSS mimtop1 mimbot1 VSS adc_noise_decoup_cell1
Xadc_noise_decoup_cell1_3[4|2] vcm VSS mimtop1 mimbot1 VSS adc_noise_decoup_cell1
Xadc_noise_decoup_cell1_3[5|2] vcm VSS mimtop1 mimbot1 VSS adc_noise_decoup_cell1
Xadc_noise_decoup_cell1_3[6|2] vcm VSS mimtop1 mimbot1 VSS adc_noise_decoup_cell1
Xadc_noise_decoup_cell1_3[7|2] vcm VSS mimtop1 mimbot1 VSS adc_noise_decoup_cell1
Xadc_noise_decoup_cell1_3[0|3] vcm VSS mimtop1 mimbot1 VSS adc_noise_decoup_cell1
Xadc_noise_decoup_cell1_3[1|3] vcm VSS mimtop1 mimbot1 VSS adc_noise_decoup_cell1
Xadc_noise_decoup_cell1_3[2|3] vcm VSS mimtop1 mimbot1 VSS adc_noise_decoup_cell1
Xadc_noise_decoup_cell1_3[3|3] vcm VSS mimtop1 mimbot1 VSS adc_noise_decoup_cell1
Xadc_noise_decoup_cell1_3[4|3] vcm VSS mimtop1 mimbot1 VSS adc_noise_decoup_cell1
Xadc_noise_decoup_cell1_3[5|3] vcm VSS mimtop1 mimbot1 VSS adc_noise_decoup_cell1
Xadc_noise_decoup_cell1_3[6|3] vcm VSS mimtop1 mimbot1 VSS adc_noise_decoup_cell1
Xadc_noise_decoup_cell1_3[7|3] vcm VSS mimtop1 mimbot1 VSS adc_noise_decoup_cell1
Xadc_noise_decoup_cell1_3[0|4] vcm VSS mimtop1 mimbot1 VSS adc_noise_decoup_cell1
Xadc_noise_decoup_cell1_3[1|4] vcm VSS mimtop1 mimbot1 VSS adc_noise_decoup_cell1
Xadc_noise_decoup_cell1_3[2|4] vcm VSS mimtop1 mimbot1 VSS adc_noise_decoup_cell1
Xadc_noise_decoup_cell1_3[3|4] vcm VSS mimtop1 mimbot1 VSS adc_noise_decoup_cell1
Xadc_noise_decoup_cell1_3[4|4] vcm VSS mimtop1 mimbot1 VSS adc_noise_decoup_cell1
Xadc_noise_decoup_cell1_3[5|4] vcm VSS mimtop1 mimbot1 VSS adc_noise_decoup_cell1
Xadc_noise_decoup_cell1_3[6|4] vcm VSS mimtop1 mimbot1 VSS adc_noise_decoup_cell1
Xadc_noise_decoup_cell1_3[7|4] vcm VSS mimtop1 mimbot1 VSS adc_noise_decoup_cell1
Xnfet_01v8_w500_l500_nf2_0 phi1 mimtop2 vcm phi1 vcm VSS nfet_01v8_w500_l500_nf2
Xnfet_01v8_w500_l500_nf2_1 phi1 mimtop1 vcm phi1 vcm VSS nfet_01v8_w500_l500_nf2
Xsky130_fd_sc_hd__nand2_1_0 clk sky130_fd_sc_hd__inv_1_3/Y VSS VDD sky130_fd_sc_hd__nand2_1_0/Y
+ VSS VDD sky130_fd_sc_hd__nand2_1_0/a_113_47# sky130_fd_sc_hd__nand2_1
Xnfet_01v8_w500_l500_nf2_2 phi2 mimtop2 mimbot1 phi2 mimbot1 VSS nfet_01v8_w500_l500_nf2
Xnfet_01v8_w500_l500_nf2_3 phi2 VDD mimtop1 phi2 mimtop1 VSS nfet_01v8_w500_l500_nf2
Xsky130_fd_sc_hd__nand2_1_1 sky130_fd_sc_hd__inv_1_2/Y sky130_fd_sc_hd__inv_1_4/Y
+ VSS VDD sky130_fd_sc_hd__nand2_1_1/Y VSS VDD sky130_fd_sc_hd__nand2_1_1/a_113_47#
+ sky130_fd_sc_hd__nand2_1
Xnfet_01v8_w500_l500_nf2_4 phi1 mimbot1 VSS phi1 VSS VSS nfet_01v8_w500_l500_nf2
Xsky130_fd_sc_hd__inv_1_0 sky130_fd_sc_hd__inv_1_0/A VSS VDD sky130_fd_sc_hd__inv_1_2/A
+ VSS VDD sky130_fd_sc_hd__inv_1
Xsky130_fd_sc_hd__inv_1_1 sky130_fd_sc_hd__inv_1_1/A VSS VDD sky130_fd_sc_hd__inv_1_3/A
+ VSS VDD sky130_fd_sc_hd__inv_1
Xsky130_fd_sc_hd__inv_1_2 sky130_fd_sc_hd__inv_1_2/A VSS VDD sky130_fd_sc_hd__inv_1_2/Y
+ VSS VDD sky130_fd_sc_hd__inv_1
Xsky130_fd_sc_hd__inv_1_3 sky130_fd_sc_hd__inv_1_3/A VSS VDD sky130_fd_sc_hd__inv_1_3/Y
+ VSS VDD sky130_fd_sc_hd__inv_1
C0 sky130_fd_sc_hd__dlymetal6s6s_1_3/a_629_47# sky130_fd_sc_hd__dlymetal6s6s_1_2/a_523_47# 0.00fF
C1 sky130_fd_sc_hd__buf_4_0/a_27_47# sky130_fd_sc_hd__dlymetal6s6s_1_5/A 0.00fF
C2 sky130_fd_sc_hd__dlymetal6s6s_1_1/a_240_47# sky130_fd_sc_hd__dlymetal6s6s_1_4/a_346_47# 0.00fF
C3 sky130_fd_sc_hd__dlymetal6s6s_1_3/a_63_47# sky130_fd_sc_hd__dlymetal6s6s_1_2/a_346_47# 0.00fF
C4 sky130_fd_sc_hd__dlymetal6s6s_1_5/a_523_47# sky130_fd_sc_hd__dlymetal6s6s_1_4/a_240_47# 0.00fF
C5 sky130_fd_sc_hd__dlymetal6s6s_1_5/a_346_47# sky130_fd_sc_hd__dlymetal6s6s_1_4/a_523_47# 0.00fF
C6 vcm sky130_fd_sc_hd__dlymetal6s6s_1_0/a_346_47# 0.03fF
C7 mimtop2 sky130_fd_sc_hd__dlymetal6s6s_1_5/a_63_47# 0.00fF
C8 sky130_fd_sc_hd__inv_1_3/Y vcm 0.59fF
C9 sky130_fd_sc_hd__inv_1_1/A sky130_fd_sc_hd__dlymetal6s6s_1_3/a_629_47# 0.00fF
C10 phi1 mimtop1 0.24fF
C11 sky130_fd_sc_hd__dlymetal6s6s_1_4/a_523_47# vcm 0.00fF
C12 mimbot1 mimtop1 11.31fF
C13 sky130_fd_sc_hd__inv_1_3/Y sky130_fd_sc_hd__dlymetal6s6s_1_4/A 0.00fF
C14 sky130_fd_sc_hd__dlymetal6s6s_1_2/a_63_47# sky130_fd_sc_hd__dlymetal6s6s_1_3/a_346_47# 0.00fF
C15 sky130_fd_sc_hd__inv_1_3/A VDD 0.32fF
C16 mimtop1 sky130_fd_sc_hd__dlymetal6s6s_1_1/a_523_47# 0.00fF
C17 mimbot1 sky130_fd_sc_hd__dlymetal6s6s_1_3/a_63_47# 0.00fF
C18 VDD sky130_fd_sc_hd__dlymetal6s6s_1_0/a_346_47# 0.01fF
C19 clk sky130_fd_sc_hd__dlymetal6s6s_1_0/a_346_47# 0.00fF
C20 sky130_fd_sc_hd__inv_1_3/Y clk 0.01fF
C21 sky130_fd_sc_hd__inv_1_3/Y VDD 1.70fF
C22 mimtop1 sky130_fd_sc_hd__dlymetal6s6s_1_1/a_346_47# 0.00fF
C23 sky130_fd_sc_hd__nand2_1_1/a_113_47# mimbot1 0.00fF
C24 sky130_fd_sc_hd__dlymetal6s6s_1_0/a_523_47# sky130_fd_sc_hd__inv_1_3/Y 0.08fF
C25 sky130_fd_sc_hd__dlymetal6s6s_1_2/a_63_47# sky130_fd_sc_hd__nand2_1_0/a_113_47# 0.00fF
C26 sky130_fd_sc_hd__inv_1_2/A sky130_fd_sc_hd__inv_1_3/A 0.00fF
C27 sky130_fd_sc_hd__dlymetal6s6s_1_3/A sky130_fd_sc_hd__dlymetal6s6s_1_2/a_240_47# -0.00fF
C28 sky130_fd_sc_hd__dlymetal6s6s_1_3/a_629_47# sky130_fd_sc_hd__dlymetal6s6s_1_2/A 0.00fF
C29 mimtop1 sky130_fd_sc_hd__nand2_1_0/Y 0.04fF
C30 sky130_fd_sc_hd__dlymetal6s6s_1_4/a_523_47# sky130_fd_sc_hd__dlymetal6s6s_1_4/A 0.00fF
C31 phi1 sky130_fd_sc_hd__nand2_1_1/Y 0.00fF
C32 mimbot1 sky130_fd_sc_hd__nand2_1_1/Y 0.00fF
C33 sky130_fd_sc_hd__inv_1_3/Y sky130_fd_sc_hd__inv_1_2/A 0.00fF
C34 sky130_fd_sc_hd__buf_4_2/a_27_47# sky130_fd_sc_hd__inv_1_3/A 0.02fF
C35 sky130_fd_sc_hd__nand2_1_0/a_113_47# sky130_fd_sc_hd__dlymetal6s6s_1_0/a_63_47# 0.00fF
C36 sky130_fd_sc_hd__nand2_1_1/a_113_47# sky130_fd_sc_hd__dlymetal6s6s_1_1/a_523_47# 0.00fF
C37 mimtop1 phi1_n 0.17fF
C38 sky130_fd_sc_hd__dlymetal6s6s_1_4/a_240_47# sky130_fd_sc_hd__dlymetal6s6s_1_5/a_63_47# 0.00fF
C39 sky130_fd_sc_hd__dlymetal6s6s_1_4/a_523_47# VDD 0.12fF
C40 sky130_fd_sc_hd__inv_1_0/A sky130_fd_sc_hd__inv_1_3/A 0.00fF
C41 sky130_fd_sc_hd__inv_1_3/Y sky130_fd_sc_hd__buf_4_2/a_27_47# 0.26fF
C42 phi2 sky130_fd_sc_hd__dlymetal6s6s_1_5/A 0.00fF
C43 sky130_fd_sc_hd__dlymetal6s6s_1_4/a_240_47# sky130_fd_sc_hd__dlymetal6s6s_1_5/a_629_47# 0.00fF
C44 sky130_fd_sc_hd__dlymetal6s6s_1_1/a_523_47# sky130_fd_sc_hd__nand2_1_1/Y 0.00fF
C45 mimtop1 phi2_n 0.09fF
C46 sky130_fd_sc_hd__dlymetal6s6s_1_2/a_346_47# vcm 0.00fF
C47 sky130_fd_sc_hd__inv_1_0/A sky130_fd_sc_hd__inv_1_3/Y 0.01fF
C48 sky130_fd_sc_hd__buf_4_0/a_27_47# sky130_fd_sc_hd__dlymetal6s6s_1_3/A 0.01fF
C49 sky130_fd_sc_hd__dlymetal6s6s_1_1/a_346_47# sky130_fd_sc_hd__nand2_1_1/Y 0.00fF
C50 sky130_fd_sc_hd__nand2_1_0/Y sky130_fd_sc_hd__nand2_1_1/Y 0.01fF
C51 sky130_fd_sc_hd__dlymetal6s6s_1_4/a_346_47# sky130_fd_sc_hd__dlymetal6s6s_1_5/A -0.00fF
C52 phi1_n sky130_fd_sc_hd__nand2_1_1/Y 0.00fF
C53 sky130_fd_sc_hd__dlymetal6s6s_1_2/a_523_47# sky130_fd_sc_hd__buf_4_3/a_27_47# 0.00fF
C54 sky130_fd_sc_hd__dlymetal6s6s_1_5/a_346_47# mimbot1 0.00fF
C55 phi2_n sky130_fd_sc_hd__nand2_1_1/Y 0.01fF
C56 sky130_fd_sc_hd__dlymetal6s6s_1_3/A sky130_fd_sc_hd__dlymetal6s6s_1_3/a_523_47# 0.00fF
C57 sky130_fd_sc_hd__dlymetal6s6s_1_5/a_346_47# sky130_fd_sc_hd__dlymetal6s6s_1_1/a_523_47# 0.00fF
C58 sky130_fd_sc_hd__dlymetal6s6s_1_2/a_346_47# VDD 0.02fF
C59 sky130_fd_sc_hd__inv_1_1/A sky130_fd_sc_hd__buf_4_3/a_27_47# 0.00fF
C60 sky130_fd_sc_hd__dlymetal6s6s_1_2/a_346_47# clk 0.00fF
C61 phi1 vcm 0.24fF
C62 sky130_fd_sc_hd__dlymetal6s6s_1_0/a_523_47# sky130_fd_sc_hd__dlymetal6s6s_1_2/a_346_47# 0.00fF
C63 sky130_fd_sc_hd__dlymetal6s6s_1_2/a_629_47# sky130_fd_sc_hd__dlymetal6s6s_1_3/a_523_47# 0.00fF
C64 mimbot1 vcm 8.24fF
C65 sky130_fd_sc_hd__buf_4_1/a_27_47# sky130_fd_sc_hd__buf_4_3/a_27_47# 0.00fF
C66 sky130_fd_sc_hd__dlymetal6s6s_1_3/A sky130_fd_sc_hd__dlymetal6s6s_1_2/a_63_47# -0.00fF
C67 sky130_fd_sc_hd__dlymetal6s6s_1_2/a_523_47# sky130_fd_sc_hd__inv_1_2/Y 0.03fF
C68 sky130_fd_sc_hd__dlymetal6s6s_1_1/a_523_47# vcm 0.01fF
C69 sky130_fd_sc_hd__dlymetal6s6s_1_3/A sky130_fd_sc_hd__dlymetal6s6s_1_0/a_63_47# 0.00fF
C70 sky130_fd_sc_hd__dlymetal6s6s_1_4/a_63_47# sky130_fd_sc_hd__inv_1_2/Y 0.07fF
C71 phi1 sky130_fd_sc_hd__dlymetal6s6s_1_4/A 0.00fF
C72 sky130_fd_sc_hd__dlymetal6s6s_1_1/a_346_47# vcm 0.03fF
C73 sky130_fd_sc_hd__nand2_1_0/Y vcm 0.27fF
C74 sky130_fd_sc_hd__inv_1_0/A sky130_fd_sc_hd__dlymetal6s6s_1_2/a_346_47# 0.00fF
C75 mimbot1 sky130_fd_sc_hd__dlymetal6s6s_1_4/A 0.06fF
C76 sky130_fd_sc_hd__dlymetal6s6s_1_2/a_240_47# mimtop1 0.00fF
C77 sky130_fd_sc_hd__dlymetal6s6s_1_3/A phi2 0.00fF
C78 sky130_fd_sc_hd__dlymetal6s6s_1_0/a_63_47# sky130_fd_sc_hd__dlymetal6s6s_1_2/a_629_47# 0.00fF
C79 sky130_fd_sc_hd__inv_1_1/A sky130_fd_sc_hd__inv_1_2/Y 0.00fF
C80 phi1_n vcm 0.32fF
C81 phi1 VDD 0.41fF
C82 phi1 clk 0.00fF
C83 sky130_fd_sc_hd__dlymetal6s6s_1_0/a_523_47# phi1 0.00fF
C84 sky130_fd_sc_hd__dlymetal6s6s_1_4/A sky130_fd_sc_hd__dlymetal6s6s_1_1/a_523_47# 0.01fF
C85 sky130_fd_sc_hd__buf_4_1/a_27_47# sky130_fd_sc_hd__inv_1_2/Y 0.05fF
C86 mimbot1 VDD 3.15fF
C87 sky130_fd_sc_hd__dlymetal6s6s_1_4/a_629_47# sky130_fd_sc_hd__dlymetal6s6s_1_1/a_63_47# 0.00fF
C88 mimbot1 clk 0.01fF
C89 mimbot1 sky130_fd_sc_hd__dlymetal6s6s_1_0/a_523_47# 0.00fF
C90 vcm phi2_n 0.05fF
C91 sky130_fd_sc_hd__dlymetal6s6s_1_0/a_629_47# sky130_fd_sc_hd__dlymetal6s6s_1_2/a_523_47# 0.00fF
C92 sky130_fd_sc_hd__dlymetal6s6s_1_1/a_629_47# sky130_fd_sc_hd__dlymetal6s6s_1_4/a_63_47# 0.00fF
C93 sky130_fd_sc_hd__dlymetal6s6s_1_4/a_346_47# sky130_fd_sc_hd__dlymetal6s6s_1_5/a_240_47# 0.00fF
C94 sky130_fd_sc_hd__dlymetal6s6s_1_3/a_63_47# sky130_fd_sc_hd__dlymetal6s6s_1_2/a_240_47# 0.00fF
C95 phi1 sky130_fd_sc_hd__inv_1_2/A 0.00fF
C96 sky130_fd_sc_hd__dlymetal6s6s_1_4/A sky130_fd_sc_hd__dlymetal6s6s_1_1/a_346_47# -0.00fF
C97 sky130_fd_sc_hd__dlymetal6s6s_1_1/a_523_47# VDD 0.05fF
C98 phi2 sky130_fd_sc_hd__dlymetal6s6s_1_2/a_629_47# 0.00fF
C99 sky130_fd_sc_hd__dlymetal6s6s_1_1/a_523_47# clk 0.00fF
C100 mimbot1 sky130_fd_sc_hd__inv_1_2/A 0.01fF
C101 sky130_fd_sc_hd__dlymetal6s6s_1_0/a_523_47# sky130_fd_sc_hd__dlymetal6s6s_1_1/a_523_47# 0.01fF
C102 sky130_fd_sc_hd__dlymetal6s6s_1_3/a_240_47# sky130_fd_sc_hd__inv_1_2/Y 0.00fF
C103 phi1 sky130_fd_sc_hd__buf_4_2/a_27_47# 0.00fF
C104 sky130_fd_sc_hd__dlymetal6s6s_1_1/a_240_47# sky130_fd_sc_hd__inv_1_2/Y 0.07fF
C105 mimbot1 sky130_fd_sc_hd__buf_4_2/a_27_47# 0.00fF
C106 sky130_fd_sc_hd__dlymetal6s6s_1_4/A phi1_n 0.00fF
C107 mimtop2 sky130_fd_sc_hd__dlymetal6s6s_1_2/a_523_47# 0.00fF
C108 sky130_fd_sc_hd__dlymetal6s6s_1_1/a_346_47# VDD 0.05fF
C109 sky130_fd_sc_hd__dlymetal6s6s_1_1/a_346_47# clk 0.00fF
C110 sky130_fd_sc_hd__nand2_1_0/Y clk 0.05fF
C111 sky130_fd_sc_hd__nand2_1_0/Y VDD 0.16fF
C112 sky130_fd_sc_hd__inv_1_0/A phi1 0.00fF
C113 sky130_fd_sc_hd__dlymetal6s6s_1_0/a_523_47# sky130_fd_sc_hd__nand2_1_0/Y 0.00fF
C114 mimtop2 sky130_fd_sc_hd__dlymetal6s6s_1_4/a_63_47# 0.00fF
C115 sky130_fd_sc_hd__dlymetal6s6s_1_4/A phi2_n 0.00fF
C116 sky130_fd_sc_hd__buf_4_0/a_27_47# sky130_fd_sc_hd__dlymetal6s6s_1_3/a_63_47# 0.01fF
C117 sky130_fd_sc_hd__dlymetal6s6s_1_2/A sky130_fd_sc_hd__inv_1_2/Y 0.00fF
C118 VDD phi1_n 1.72fF
C119 phi1_n clk 0.00fF
C120 sky130_fd_sc_hd__dlymetal6s6s_1_0/a_523_47# phi1_n 0.01fF
C121 VDD phi2_n 1.35fF
C122 sky130_fd_sc_hd__dlymetal6s6s_1_0/a_523_47# phi2_n 0.00fF
C123 sky130_fd_sc_hd__dlymetal6s6s_1_0/a_629_47# sky130_fd_sc_hd__dlymetal6s6s_1_3/a_240_47# 0.00fF
C124 sky130_fd_sc_hd__inv_1_2/A phi1_n 0.00fF
C125 mimtop2 sky130_fd_sc_hd__buf_4_1/a_27_47# 0.00fF
C126 sky130_fd_sc_hd__dlymetal6s6s_1_3/A sky130_fd_sc_hd__dlymetal6s6s_1_3/a_629_47# 0.00fF
C127 sky130_fd_sc_hd__dlymetal6s6s_1_5/a_523_47# sky130_fd_sc_hd__dlymetal6s6s_1_4/a_629_47# 0.00fF
C128 mimtop2 sky130_fd_sc_hd__dlymetal6s6s_1_3/a_240_47# 0.00fF
C129 sky130_fd_sc_hd__inv_1_0/A phi1_n 0.00fF
C130 sky130_fd_sc_hd__dlymetal6s6s_1_3/a_629_47# sky130_fd_sc_hd__dlymetal6s6s_1_2/a_629_47# 0.00fF
C131 mimtop2 sky130_fd_sc_hd__dlymetal6s6s_1_1/a_240_47# 0.01fF
C132 sky130_fd_sc_hd__buf_4_2/a_27_47# phi2_n 0.00fF
C133 sky130_fd_sc_hd__dlymetal6s6s_1_0/a_629_47# sky130_fd_sc_hd__dlymetal6s6s_1_2/A 0.02fF
C134 mimtop1 sky130_fd_sc_hd__dlymetal6s6s_1_2/a_63_47# 0.00fF
C135 mimtop1 sky130_fd_sc_hd__dlymetal6s6s_1_0/a_63_47# 0.00fF
C136 mimtop2 sky130_fd_sc_hd__dlymetal6s6s_1_2/A 0.00fF
C137 sky130_fd_sc_hd__dlymetal6s6s_1_3/a_63_47# sky130_fd_sc_hd__dlymetal6s6s_1_2/a_63_47# 0.00fF
C138 sky130_fd_sc_hd__dlymetal6s6s_1_2/a_240_47# vcm 0.00fF
C139 sky130_fd_sc_hd__inv_1_3/Y sky130_fd_sc_hd__inv_1_3/A 0.22fF
C140 sky130_fd_sc_hd__inv_1_3/Y sky130_fd_sc_hd__dlymetal6s6s_1_0/a_346_47# 0.07fF
C141 sky130_fd_sc_hd__dlymetal6s6s_1_3/a_346_47# sky130_fd_sc_hd__inv_1_2/Y 0.00fF
C142 phi2 mimtop1 0.04fF
C143 sky130_fd_sc_hd__inv_1_1/A sky130_fd_sc_hd__dlymetal6s6s_1_4/a_240_47# 0.00fF
C144 sky130_fd_sc_hd__dlymetal6s6s_1_5/A sky130_fd_sc_hd__inv_1_2/Y 0.00fF
C145 sky130_fd_sc_hd__dlymetal6s6s_1_4/a_240_47# sky130_fd_sc_hd__buf_4_1/a_27_47# 0.00fF
C146 mimtop1 sky130_fd_sc_hd__dlymetal6s6s_1_4/a_346_47# 0.00fF
C147 sky130_fd_sc_hd__dlymetal6s6s_1_0/a_63_47# sky130_fd_sc_hd__nand2_1_1/Y 0.00fF
C148 sky130_fd_sc_hd__buf_4_0/a_27_47# vcm 0.00fF
C149 sky130_fd_sc_hd__dlymetal6s6s_1_4/a_523_47# sky130_fd_sc_hd__inv_1_3/Y 0.03fF
C150 sky130_fd_sc_hd__dlymetal6s6s_1_2/a_240_47# VDD 0.03fF
C151 sky130_fd_sc_hd__dlymetal6s6s_1_0/a_629_47# sky130_fd_sc_hd__dlymetal6s6s_1_3/a_346_47# 0.00fF
C152 phi2 sky130_fd_sc_hd__nand2_1_1/Y 0.00fF
C153 sky130_fd_sc_hd__dlymetal6s6s_1_2/a_240_47# clk 0.00fF
C154 sky130_fd_sc_hd__dlymetal6s6s_1_1/a_240_47# sky130_fd_sc_hd__dlymetal6s6s_1_4/a_240_47# 0.00fF
C155 sky130_fd_sc_hd__dlymetal6s6s_1_1/a_629_47# sky130_fd_sc_hd__dlymetal6s6s_1_5/A 0.00fF
C156 sky130_fd_sc_hd__dlymetal6s6s_1_0/a_523_47# sky130_fd_sc_hd__dlymetal6s6s_1_2/a_240_47# 0.00fF
C157 sky130_fd_sc_hd__dlymetal6s6s_1_5/a_63_47# sky130_fd_sc_hd__dlymetal6s6s_1_4/a_629_47# 0.00fF