* NGSPICE file created from adc_top.ext - technology: sky130A

.subckt adc_top_postlayout result_out[0] result_out[1] result_out[2] result_out[3] result_out[4] result_out[5] result_out[6] result_out[7] result_out[8] result_out[9] result_out[10] result_out[11] result_out[12] result_out[13] result_out[14] result_out[15] 
+ VDD VSS conversion_finished_out rst_n start_conversion_in clk_vcm inp_analog inn_analog
+ config_1_in[0] config_1_in[1] config_1_in[2] config_1_in[3] config_1_in[4] config_1_in[5] config_1_in[6] config_1_in[7] config_1_in[8] config_1_in[9]
+ config_1_in[10] config_1_in[11] config_1_in[12] config_1_in[13] config_1_in[14] config_1_in[15] 
+ config_2_in[0] config_2_in[1] config_2_in[2] config_2_in[3] config_2_in[4] config_2_in[5] config_2_in[6] config_2_in[7] config_2_in[8] config_2_in[9] 
+ config_2_in[10] config_2_in[11] config_2_in[12] config_2_in[13] config_2_in[14] config_2_in[15] 
+ dummypin[0] dummypin[10] dummypin[11] dummypin[12] dummypin[13] dummypin[14] dummypin[15] dummypin[1] dummypin[2] dummypin[3] dummypin[4] dummypin[5] dummypin[6] dummypin[7] dummypin[8] dummypin[9]
+ ctopp ctopn vcm clk_dig clk_comp clk_ena ndecision_finish comp_latch
C_D0 VSS a_7717_14735# 0.01fF
C_D1 VSS a_12447_16143# 0.01fF
C_D10 VSS a_7109_29423# 0.01fF
C_D100 VSS _1184_.A2 0.01fF
C_D1000 VSS a_2007_25597# 0.01fF
C_D1001 VSS _1154_.A 0.01fF
C_D1002 VSS _1224_.X 0.01fF
C_D1003 VSS a_4259_31375# 0.01fF
C_D1004 VSS ANTENNA__1197__A.DIODE 0.01fF
C_D1005 VSS a_2263_43719# 0.01fF
C_D1006 VSS a_9411_2215# 0.01fF
C_D1007 VSS pmat.sw 0.01fF
C_D1008 VSS a_11149_40188# 0.01fF
C_D1009 VSS a_4383_7093# 0.01fF
C_D101 VSS a_12263_50959# 0.01fF
C_D1010 VSS cgen.dlycontrol4_in[2] 0.01fF
C_D1011 VSS a_24591_28327# 0.01fF
C_D1012 VSS a_37820_30485# 0.01fF
C_D1013 VSS a_13091_7655# 0.01fF
C_D1014 VSS a_13459_28111# 0.01fF
C_D1015 VSS _1224_.X 0.01fF
C_D1016 VSS pmat.en_bit_n[0] 0.01fF
C_D1017 VSS a_1957_43567# 0.01fF
C_D1018 VSS _1179_.X 0.01fF
C_D1019 VSS a_40837_46261# 0.01fF
C_D102 VSS a_6787_47607# 0.01fF
C_D1020 VSS ANTENNA__1197__A.DIODE 0.01fF
C_D1021 VSS a_10515_13967# 0.01fF
C_D1022 VSS a_2407_49289# 0.01fF
C_D1023 VSS a_18563_27791# 0.01fF
C_D1024 VSS a_21279_48999# 0.01fF
C_D1025 VSS a_40837_46261# 0.01fF
C_D1026 VSS a_1899_35051# 0.01fF
C_D1027 VSS a_4383_7093# 0.01fF
C_D1028 VSS a_30663_50087# 0.01fF
C_D1029 VSS a_24407_31375# 0.01fF
C_D103 VSS a_9963_28111# 0.01fF
C_D1030 VSS a_11067_16359# 0.01fF
C_D1031 VSS a_17139_30503# 0.01fF
C_D1032 VSS _1154_.A 0.01fF
C_D1033 VSS a_25879_31591# 0.01fF
C_D1034 VSS cgen.dlycontrol4_in[5] 0.01fF
C_D1035 VSS _1192_.A2 0.01fF
C_D1036 VSS a_2411_43301# 0.01fF
C_D1037 VSS a_11435_58791# 0.01fF
C_D1038 VSS a_10055_31591# 0.01fF
C_D1039 VSS nmat.col_n[30] 0.01fF
C_D104 VSS a_10239_14183# 0.01fF
C_D1040 VSS a_5081_53135# 0.01fF
C_D1041 VSS a_4075_68583# 0.01fF
C_D1042 VSS ANTENNA__1195__A1.DIODE 0.01fF
C_D1043 VSS _1194_.A2 0.01fF
C_D1044 VSS a_13091_52047# 0.01fF
C_D1045 VSS a_4128_64391# 0.01fF
C_D1046 VSS a_22153_37179# 0.01fF
C_D1047 VSS a_2407_49289# 0.01fF
C_D1048 VSS a_11067_27239# 0.01fF
C_D1049 VSS a_29937_31055# 0.01fF
C_D105 VSS a_4075_31591# 0.01fF
C_D1050 VSS nmat.sw 0.01fF
C_D1051 VSS a_11067_16359# 0.01fF
C_D1052 VSS a_10515_61839# 0.01fF
C_D1053 VSS a_33423_47695# 0.01fF
C_D1054 VSS a_2411_43301# 0.01fF
C_D1055 VSS _1196_.B1 0.01fF
C_D1056 VSS a_2411_43301# 0.01fF
C_D1057 VSS a_11067_16359# 0.01fF
C_D1058 VSS a_4075_50087# 0.01fF
C_D1059 VSS a_4719_30287# 0.01fF
C_D106 VSS _1194_.A2 0.01fF
C_D1060 VSS _1224_.X 0.01fF
C_D1061 VSS ANTENNA__1187__B1.DIODE 0.01fF
C_D1062 VSS a_10883_3303# 0.01fF
C_D1063 VSS _1196_.B1 0.01fF
C_D1064 VSS a_2419_53351# 0.01fF
C_D1065 VSS a_25879_31591# 0.01fF
C_D1066 VSS a_14887_46377# 0.01fF
C_D1067 VSS config_1_in[1] 0.01fF
C_D1068 VSS ANTENNA__1197__A.DIODE 0.01fF
C_D1069 VSS a_10515_61839# 0.01fF
C_D107 VSS ANTENNA__1190__B1.DIODE 0.01fF
C_D1070 VSS a_5651_66975# 0.01fF
C_D1071 VSS nmat.col[29] 0.01fF
C_D1072 VSS nmat.col[15] 0.01fF
C_D1073 VSS a_8583_29199# 0.01fF
C_D1074 VSS _1154_.A 0.01fF
C_D1075 VSS nmat.en_bit_n[1] 0.01fF
C_D1076 VSS ANTENNA__1190__B1.DIODE 0.01fF
C_D1077 VSS pmat.row_n[8] 0.01fF
C_D1078 VSS a_9963_28111# 0.01fF
C_D1079 VSS a_2007_25597# 0.01fF
C_D108 VSS a_5081_53135# 0.01fF
C_D1080 VSS _1224_.X 0.01fF
C_D1081 VSS ANTENNA__1395__A1.DIODE 0.01fF
C_D1082 VSS _1192_.B1 0.01fF
C_D1083 VSS a_11067_64015# 0.01fF
C_D1084 VSS a_7939_31591# 0.01fF
C_D1085 VSS a_33423_47695# 0.01fF
C_D1086 VSS a_6559_33767# 0.01fF
C_D1087 VSS a_2835_13077# 0.01fF
C_D1088 VSS comp_latch 0.01fF
C_D1089 VSS a_6467_29415# 0.01fF
C_D109 VSS pmat.row_n[5] 0.01fF
C_D1090 VSS a_2791_57703# 0.01fF
C_D1091 VSS ANTENNA__1184__B1.DIODE 0.01fF
C_D1092 VSS cgen.dlycontrol1_in[2] 0.01fF
C_D1093 VSS _1192_.B1 0.01fF
C_D1094 VSS a_1586_50247# 0.01fF
C_D1095 VSS a_11067_16359# 0.01fF
C_D1096 VSS a_12263_50959# 0.01fF
C_D1097 VSS a_13091_28327# 0.01fF
C_D1098 VSS pmat.rowoff_n[8] 0.01fF
C_D1099 VSS a_6664_26159# 0.01fF
C_D11 VSS _1154_.X 0.01fF
C_D110 VSS a_7109_29423# 0.01fF
C_D1100 VSS a_7717_14735# 0.01fF
C_D1101 VSS pmat.rowoff_n[7] 0.01fF
C_D1102 VSS a_1586_18231# 0.01fF
C_D1103 VSS a_1591_31599# 0.01fF
C_D1104 VSS config_1_in[9] 0.01fF
C_D1105 VSS a_7415_29397# 0.01fF
C_D1106 VSS a_6664_26159# 0.01fF
C_D1107 VSS cgen.dlycontrol3_in[0] 0.01fF
C_D1108 VSS a_11067_64015# 0.01fF
C_D1109 VSS _1196_.B1 0.01fF
C_D111 VSS pmat.row_n[2] 0.01fF
C_D1110 VSS _1183_.A2 0.01fF
C_D1111 VSS a_11067_27239# 0.01fF
C_D1112 VSS a_5651_66975# 0.01fF
C_D1113 VSS cgen.dlycontrol2_in[3] 0.01fF
C_D1114 VSS a_10515_13967# 0.01fF
C_D1115 VSS a_18563_27791# 0.01fF
C_D1116 VSS nmat.rowon_n[7] 0.01fF
C_D1117 VSS a_4075_31591# 0.01fF
C_D1118 VSS clk_ena 0.01fF
C_D1119 VSS ANTENNA__1190__A1.DIODE 0.01fF
C_D112 VSS a_13641_23439# 0.01fF
C_D1120 VSS a_13091_28327# 0.01fF
C_D1121 VSS a_1923_61759# 0.01fF
C_D1122 VSS a_14287_70543# 0.01fF
C_D1123 VSS a_22199_30287# 0.01fF
C_D1124 VSS a_17842_27497# 0.01fF
C_D1125 VSS a_2791_57703# 0.01fF
C_D1126 VSS a_1586_18231# 0.01fF
C_D1127 VSS a_1586_50247# 0.01fF
C_D1128 VSS a_31675_47695# 0.01fF
C_D1129 VSS a_31675_47695# 0.01fF
C_D113 VSS a_3615_71631# 0.01fF
C_D1130 VSS config_1_in[8] 0.01fF
C_D1131 VSS nmat.rowon_n[7] 0.01fF
C_D1132 VSS nmat.col[18] 0.01fF
C_D1133 VSS a_2879_57487# 0.01fF
C_D1134 VSS config_1_in[11] 0.01fF
C_D1135 VSS a_10515_13967# 0.01fF
C_D1136 VSS cgen.dlycontrol2_in[4] 0.01fF
C_D1137 VSS a_2419_69455# 0.01fF
C_D1138 VSS clk_ena 0.01fF
C_D1139 VSS _1184_.A2 0.01fF
C_D114 VSS a_13459_28111# 0.01fF
C_D1140 VSS a_2791_57703# 0.01fF
C_D1141 VSS a_6927_30503# 0.01fF
C_D1142 VSS pmat.rowon_n[7] 0.01fF
C_D1143 VSS a_13091_28327# 0.01fF
C_D1144 VSS a_6787_47607# 0.01fF
C_D1145 VSS pmat.col[31] 0.01fF
C_D1146 VSS cgen.dlycontrol3_in[1] 0.01fF
C_D1147 VSS a_1586_50247# 0.01fF
C_D1148 VSS clk_ena 0.01fF
C_D1149 VSS a_5651_66975# 0.01fF
C_D115 VSS _1224_.X 0.01fF
C_D1150 VSS a_2263_43719# 0.01fF
C_D1151 VSS ANTENNA_fanout52_A.DIODE 0.01fF
C_D1152 VSS nmat.col[26] 0.01fF
C_D1153 VSS nmat.col[31] 0.01fF
C_D1154 VSS clk_ena 0.01fF
C_D1155 VSS a_4075_50087# 0.01fF
C_D1156 VSS a_8583_29199# 0.01fF
C_D1157 VSS _1179_.X 0.01fF
C_D1158 VSS pmat.row_n[6] 0.01fF
C_D1159 VSS a_4719_30287# 0.01fF
C_D116 VSS a_11067_30287# 0.01fF
C_D1160 VSS a_6787_47607# 0.01fF
C_D1161 VSS nmat.sw 0.01fF
C_D1162 VSS _1187_.A2 0.01fF
C_D1163 VSS nmat.col_n[12] 0.01fF
C_D1164 VSS nmat.col[24] 0.01fF
C_D1165 VSS a_28915_50959# 0.01fF
C_D1166 VSS pmat.row_n[10] 0.01fF
C_D1167 VSS config_2_in[13] 0.01fF
C_D1168 VSS a_9411_2215# 0.01fF
C_D1169 VSS a_9963_13967# 0.01fF
C_D117 VSS a_10515_13967# 0.01fF
C_D1170 VSS _1179_.X 0.01fF
C_D1171 VSS a_30663_50087# 0.01fF
C_D1172 VSS a_2411_43301# 0.01fF
C_D1173 VSS ANTENNA__1195__A1.DIODE 0.01fF
C_D1174 VSS a_30111_47911# 0.01fF
C_D1175 VSS nmat.rowon_n[7] 0.01fF
C_D1176 VSS _1194_.B1 0.01fF
C_D1177 VSS a_5651_66975# 0.01fF
C_D1178 VSS a_5351_19913# 0.01fF
C_D1179 VSS a_4719_30287# 0.01fF
C_D118 VSS a_1769_13103# 0.01fF
C_D1180 VSS a_10883_3303# 0.01fF
C_D1181 VSS a_1923_31743# 0.01fF
C_D1182 VSS a_2407_49289# 0.01fF
C_D1183 VSS nmat.col_n[19] 0.01fF
C_D1184 VSS a_5363_33551# 0.01fF
C_D1185 VSS pmat.rowon_n[7] 0.01fF
C_D1186 VSS ANTENNA__1395__B1.DIODE 0.01fF
C_D1187 VSS pmat.rowon_n[8] 0.01fF
C_D1188 VSS a_7415_29397# 0.01fF
C_D1189 VSS a_30571_50959# 0.01fF
C_D119 VSS a_4383_7093# 0.01fF
C_D1190 VSS a_4383_7093# 0.01fF
C_D1191 VSS a_1923_61759# 0.01fF
C_D1192 VSS a_6283_31591# 0.01fF
C_D1193 VSS pmat.rowoff_n[15] 0.01fF
C_D1194 VSS a_5351_19913# 0.01fF
C_D1195 VSS a_10515_13967# 0.01fF
C_D1196 VSS a_2411_43301# 0.01fF
C_D1197 VSS nmat.col_n[10] 0.01fF
C_D1198 VSS a_30571_50959# 0.01fF
C_D1199 VSS ANTENNA__1183__B1.DIODE 0.01fF
C_D12 VSS _1154_.X 0.01fF
C_D120 VSS a_10239_14183# 0.01fF
C_D1200 VSS a_10055_31591# 0.01fF
C_D1201 VSS a_13275_48783# 0.01fF
C_D1202 VSS a_9963_13967# 0.01fF
C_D1203 VSS _1194_.B1 0.01fF
C_D1204 VSS ANTENNA__1190__A1.DIODE 0.01fF
C_D1205 VSS a_30111_47911# 0.01fF
C_D1206 VSS a_24407_31375# 0.01fF
C_D1207 VSS a_6283_31591# 0.01fF
C_D1208 VSS nmat.rowon_n[14] 0.01fF
C_D1209 VSS a_25879_31591# 0.01fF
C_D121 VSS a_7109_29423# 0.01fF
C_D1210 VSS cgen.start_conv_in 0.01fF
C_D1211 VSS ANTENNA__1195__A1.DIODE 0.01fF
C_D1212 VSS a_17139_30503# 0.01fF
C_D1213 VSS a_28915_50959# 0.01fF
C_D1214 VSS a_1923_61759# 0.01fF
C_D1215 VSS pmat.row_n[14] 0.01fF
C_D1216 VSS a_1586_50247# 0.01fF
C_D1217 VSS a_25695_28111# 0.01fF
C_D1218 VSS a_21739_29415# 0.01fF
C_D1219 VSS a_6283_31591# 0.01fF
C_D122 VSS a_1586_50247# 0.01fF
C_D1220 VSS comp_latch 0.01fF
C_D1221 VSS ANTENNA__1197__B.DIODE 0.01fF
C_D1222 VSS a_11067_30287# 0.01fF
C_D1223 VSS a_11317_36924# 0.01fF
C_D1224 VSS a_30571_50959# 0.01fF
C_D1225 VSS a_1899_35051# 0.01fF
C_D1226 VSS a_1923_61759# 0.01fF
C_D1227 VSS nmat.sw 0.01fF
C_D1228 VSS a_11067_30287# 0.01fF
C_D1229 VSS cgen.dlycontrol4_in[5] 0.01fF
C_D123 VSS a_1923_31743# 0.01fF
C_D1230 VSS a_2263_43719# 0.01fF
C_D1231 VSS a_4075_31591# 0.01fF
C_D1232 VSS pmat.en_bit_n[2] 0.01fF
C_D1233 VSS a_11317_36924# 0.01fF
C_D1234 VSS ANTENNA__1196__A2.DIODE 0.01fF
C_D1235 VSS _1194_.B1 0.01fF
C_D1236 VSS a_33423_47695# 0.01fF
C_D1237 VSS a_4383_7093# 0.01fF
C_D1238 VSS _1184_.A2 0.01fF
C_D1239 VSS nmat.sw 0.01fF
C_D124 VSS pmat.row_n[8] 0.01fF
C_D1240 VSS pmat.row_n[4] 0.01fF
C_D1241 VSS a_16311_28327# 0.01fF
C_D1242 VSS a_4075_31591# 0.01fF
C_D1243 VSS a_11067_27239# 0.01fF
C_D1244 VSS a_3339_59879# 0.01fF
C_D1245 VSS a_8491_47911# 0.01fF
C_D1246 VSS a_30111_47911# 0.01fF
C_D1247 VSS a_22199_30287# 0.01fF
C_D1248 VSS a_2046_30184# 0.01fF
C_D1249 VSS cgen.dlycontrol4_in[3] 0.01fF
C_D125 VSS a_14887_46377# 0.01fF
C_D1250 VSS _1196_.B1 0.01fF
C_D1251 VSS a_2411_43301# 0.01fF
C_D1252 VSS a_13091_52047# 0.01fF
C_D1253 VSS a_24407_31375# 0.01fF
C_D1254 VSS a_1957_43567# 0.01fF
C_D1255 VSS config_2_in[5] 0.01fF
C_D1256 VSS a_15667_27239# 0.01fF
C_D1257 VSS _1224_.X 0.01fF
C_D1258 VSS ANTENNA__1395__B1.DIODE 0.01fF
C_D1259 VSS a_2046_30184# 0.01fF
C_D126 VSS a_16311_28327# 0.01fF
C_D1260 VSS a_8491_47911# 0.01fF
C_D1261 VSS a_4075_31591# 0.01fF
C_D1262 VSS ANTENNA__1197__B.DIODE 0.01fF
C_D1263 VSS a_2879_57487# 0.01fF
C_D1264 VSS pmat.rowon_n[7] 0.01fF
C_D1265 VSS clk_dig 0.01fF
C_D1266 VSS a_6559_33767# 0.01fF
C_D1267 VSS ANTENNA__1195__A1.DIODE 0.01fF
C_D1268 VSS a_31675_47695# 0.01fF
C_D1269 VSS ANTENNA__1195__A1.DIODE 0.01fF
C_D127 VSS comp_latch 0.01fF
C_D1270 VSS a_10873_38517# 0.01fF
C_D1271 VSS a_4259_73807# 0.01fF
C_D1272 VSS a_38851_28327# 0.01fF
C_D1273 VSS a_13091_52047# 0.01fF
C_D1274 VSS a_1769_14735# 0.01fF
C_D1275 VSS a_1586_18231# 0.01fF
C_D1276 VSS a_6664_26159# 0.01fF
C_D1277 VSS ANTENNA__1197__A.DIODE 0.01fF
C_D1278 VSS a_30663_50087# 0.01fF
C_D1279 VSS a_1781_9308# 0.01fF
C_D128 VSS a_10883_3303# 0.01fF
C_D1280 VSS a_21739_29415# 0.01fF
C_D1281 VSS a_41731_49525# 0.01fF
C_D1282 VSS a_24867_53135# 0.01fF
C_D1283 VSS a_4383_7093# 0.01fF
C_D1284 VSS ANTENNA__1395__A1.DIODE 0.01fF
C_D1285 VSS a_5363_70543# 0.01fF
C_D1286 VSS a_2046_30184# 0.01fF
C_D1287 VSS a_15667_27239# 0.01fF
C_D1288 VSS a_2791_57703# 0.01fF
C_D1289 VSS a_4991_69831# 0.01fF
C_D129 VSS a_12116_40871# 0.01fF
C_D1290 VSS _1154_.A 0.01fF
C_D1291 VSS a_40837_46261# 0.01fF
C_D1292 VSS nmat.rowon_n[7] 0.01fF
C_D1293 VSS a_8583_29199# 0.01fF
C_D1294 VSS a_21739_29415# 0.01fF
C_D1295 VSS ANTENNA__1197__B.DIODE 0.01fF
C_D1296 VSS a_9963_13967# 0.01fF
C_D1297 VSS a_2648_29397# 0.01fF
C_D1298 VSS a_1899_35051# 0.01fF
C_D1299 VSS a_30663_50087# 0.01fF
C_D13 VSS a_4128_64391# 0.01fF
C_D130 VSS a_5351_19913# 0.01fF
C_D1300 VSS a_38851_28327# 0.01fF
C_D1301 VSS a_2419_53351# 0.01fF
C_D1302 VSS a_17842_27497# 0.01fF
C_D1303 VSS a_2879_57487# 0.01fF
C_D1304 VSS a_4128_64391# 0.01fF
C_D1305 VSS a_41731_49525# 0.01fF
C_D1306 VSS a_12447_16143# 0.01fF
C_D1307 VSS _1154_.A 0.01fF
C_D1308 VSS a_40837_46261# 0.01fF
C_D1309 VSS a_3746_58487# 0.01fF
C_D131 VSS _1154_.A 0.01fF
C_D1310 VSS a_1591_31599# 0.01fF
C_D1311 VSS pmat.en_bit_n[2] 0.01fF
C_D1312 VSS a_41731_49525# 0.01fF
C_D1313 VSS _1187_.A2 0.01fF
C_D1314 VSS a_11067_27239# 0.01fF
C_D1315 VSS a_5363_33551# 0.01fF
C_D1316 VSS a_10239_14183# 0.01fF
C_D1317 VSS a_1858_25615# 0.01fF
C_D1318 VSS a_9963_13967# 0.01fF
C_D1319 VSS ANTENNA__1187__B1.DIODE 0.01fF
C_D132 VSS a_12447_16143# 0.01fF
C_D1320 VSS a_4075_31591# 0.01fF
C_D1321 VSS a_24407_31375# 0.01fF
C_D1322 VSS a_6559_33767# 0.01fF
C_D1323 VSS a_5363_33551# 0.01fF
C_D1324 VSS a_1781_9308# 0.01fF
C_D1325 VSS clk_ena 0.01fF
C_D1326 VSS a_1899_35051# 0.01fF
C_D1327 VSS a_9135_60967# 0.01fF
C_D1328 VSS a_10515_15055# 0.01fF
C_D1329 VSS a_17842_27497# 0.01fF
C_D133 VSS pmat.rowon_n[7] 0.01fF
C_D1330 VSS config_1_in[6] 0.01fF
C_D1331 VSS a_17139_30503# 0.01fF
C_D1332 VSS a_11067_64015# 0.01fF
C_D1333 VSS a_1674_57711# 0.01fF
C_D1334 VSS a_17139_30503# 0.01fF
C_D1335 VSS a_38851_28327# 0.01fF
C_D1336 VSS pmat.rowon_n[3] 0.01fF
C_D1337 VSS a_6467_29415# 0.01fF
C_D1338 VSS pmat.row_n[0] 0.01fF
C_D1339 VSS a_3746_58487# 0.01fF
C_D134 VSS a_2791_57703# 0.01fF
C_D1340 VSS a_40837_46261# 0.01fF
C_D1341 VSS a_24591_28327# 0.01fF
C_D1342 VSS a_8583_29199# 0.01fF
C_D1343 VSS a_2419_53351# 0.01fF
C_D1344 VSS a_2835_13077# 0.01fF
C_D1345 VSS a_15667_27239# 0.01fF
C_D1346 VSS a_2419_69455# 0.01fF
C_D1347 VSS a_6283_31591# 0.01fF
C_D1348 VSS a_26891_28327# 0.01fF
C_D1349 VSS a_30663_50087# 0.01fF
C_D135 VSS a_1586_63927# 0.01fF
C_D1350 VSS a_12116_40871# 0.01fF
C_D1351 VSS cgen.dlycontrol2_in[0] 0.01fF
C_D1352 VSS a_2791_57703# 0.01fF
C_D1353 VSS _1179_.X 0.01fF
C_D1354 VSS a_5651_66975# 0.01fF
C_D1355 VSS a_13641_23439# 0.01fF
C_D1356 VSS a_32687_46607# 0.01fF
C_D1357 VSS a_1923_31743# 0.01fF
C_D1358 VSS _1519_.A 0.01fF
C_D1359 VSS nmat.sw 0.01fF
C_D136 VSS a_5351_19913# 0.01fF
C_D1360 VSS a_13091_28327# 0.01fF
C_D1361 VSS config_1_in[4] 0.01fF
C_D1362 VSS a_4075_50087# 0.01fF
C_D1363 VSS a_13641_23439# 0.01fF
C_D1364 VSS _1154_.A 0.01fF
C_D1365 VSS pmat.rowon_n[7] 0.01fF
C_D1366 VSS a_7109_29423# 0.01fF
C_D1367 VSS pmat.row_n[9] 0.01fF
C_D1368 VSS a_2791_57703# 0.01fF
C_D1369 VSS a_2419_69455# 0.01fF
C_D137 VSS nmat.rowon_n[7] 0.01fF
C_D138 VSS a_2419_53351# 0.01fF
C_D139 VSS ANTENNA__1190__A1.DIODE 0.01fF
C_D14 VSS a_30663_50087# 0.01fF
C_D140 VSS pmat.row_n[12] 0.01fF
C_D141 VSS a_12447_16143# 0.01fF
C_D142 VSS config_2_in[2] 0.01fF
C_D143 VSS _1192_.B1 0.01fF
C_D144 VSS a_38851_28327# 0.01fF
C_D145 VSS a_33423_47695# 0.01fF
C_D146 VSS a_8443_20719# 0.01fF
C_D147 VSS a_1923_61759# 0.01fF
C_D148 VSS ANTENNA__1395__A2.DIODE 0.01fF
C_D149 VSS inp_analog 0.01fF
C_D15 VSS a_4351_55527# 0.01fF
C_D150 VSS a_5351_19913# 0.01fF
C_D151 VSS _1187_.A2 0.01fF
C_D152 VSS a_1923_61759# 0.01fF
C_D153 VSS a_5081_53135# 0.01fF
C_D154 VSS a_9963_13967# 0.01fF
C_D155 VSS a_2419_69455# 0.01fF
C_D156 VSS a_2046_30184# 0.01fF
C_D157 VSS a_1923_61759# 0.01fF
C_D158 VSS ANTENNA__1395__B1.DIODE 0.01fF
C_D159 VSS a_7415_29397# 0.01fF
C_D16 VSS _1184_.A2 0.01fF
C_D160 VSS a_1957_43567# 0.01fF
C_D161 VSS ANTENNA__1195__A1.DIODE 0.01fF
C_D162 VSS _1192_.B1 0.01fF
C_D163 VSS a_30111_47911# 0.01fF
C_D164 VSS ANTENNA__1190__A2.DIODE 0.01fF
C_D165 VSS a_10055_31591# 0.01fF
C_D166 VSS _1183_.A2 0.01fF
C_D167 VSS _1194_.A2 0.01fF
C_D168 VSS a_13459_28111# 0.01fF
C_D169 VSS a_11948_49783# 0.01fF
C_D17 VSS _1154_.X 0.01fF
C_D170 VSS ANTENNA__1184__B1.DIODE 0.01fF
C_D171 VSS a_5363_33551# 0.01fF
C_D172 VSS a_10515_61839# 0.01fF
C_D173 VSS ANTENNA__1196__A2.DIODE 0.01fF
C_D174 VSS _1154_.A 0.01fF
C_D175 VSS a_25879_31591# 0.01fF
C_D176 VSS a_6927_30503# 0.01fF
C_D177 VSS a_9135_60967# 0.01fF
C_D178 VSS a_10515_61839# 0.01fF
C_D179 VSS a_21371_50087# 0.01fF
C_D18 VSS a_1769_13103# 0.01fF
C_D180 VSS a_1586_50247# 0.01fF
C_D181 VSS a_2215_47375# 0.01fF
C_D182 VSS _1179_.X 0.01fF
C_D183 VSS cgen.dlycontrol4_in[4] 0.01fF
C_D184 VSS cgen.dlycontrol4_in[0] 0.01fF
C_D185 VSS a_1739_47893# 0.01fF
C_D186 VSS ANTENNA__1190__A1.DIODE 0.01fF
C_D187 VSS a_1923_61759# 0.01fF
C_D188 VSS a_11067_30287# 0.01fF
C_D189 VSS config_1_in[15] 0.01fF
C_D19 VSS a_11435_58791# 0.01fF
C_D190 VSS a_8583_29199# 0.01fF
C_D191 VSS a_41731_49525# 0.01fF
C_D192 VSS a_7717_14735# 0.01fF
C_D193 VSS ANTENNA__1187__B1.DIODE 0.01fF
C_D194 VSS a_2149_45717# 0.01fF
C_D195 VSS a_11948_49783# 0.01fF
C_D196 VSS a_4351_55527# 0.01fF
C_D197 VSS _1183_.A2 0.01fF
C_D198 VSS a_35244_32411# 0.01fF
C_D199 VSS a_1769_47919# 0.01fF
C_D2 VSS a_10781_42364# 0.01fF
C_D20 VSS a_2419_53351# 0.01fF
C_D200 VSS a_16311_28327# 0.01fF
C_D201 VSS _1192_.A2 0.01fF
C_D202 VSS a_9963_13967# 0.01fF
C_D203 VSS cgen.enable_dlycontrol_in 0.01fF
C_D204 VSS nmat.en_bit_n[0] 0.01fF
C_D205 VSS ANTENNA__1184__B1.DIODE 0.01fF
C_D206 VSS a_12263_50959# 0.01fF
C_D207 VSS ANTENNA__1190__B1.DIODE 0.01fF
C_D208 VSS a_10515_13967# 0.01fF
C_D209 VSS a_2407_49289# 0.01fF
C_D21 VSS a_29937_31055# 0.01fF
C_D210 VSS a_24867_53135# 0.01fF
C_D211 VSS a_2835_13077# 0.01fF
C_D212 VSS ANTENNA__1197__B.DIODE 0.01fF
C_D213 VSS a_31675_47695# 0.01fF
C_D214 VSS pmat.sw 0.01fF
C_D215 VSS nmat.sw 0.01fF
C_D216 VSS a_6451_67655# 0.01fF
C_D217 VSS _1196_.B1 0.01fF
C_D218 VSS a_6283_31591# 0.01fF
C_D219 VSS _1194_.B1 0.01fF
C_D22 VSS config_2_in[8] 0.01fF
C_D220 VSS ANTENNA__1190__A2.DIODE 0.01fF
C_D221 VSS cgen.enable_dlycontrol_in 0.01fF
C_D222 VSS _1196_.B1 0.01fF
C_D223 VSS a_10515_61839# 0.01fF
C_D224 VSS _1183_.A2 0.01fF
C_D225 VSS a_28915_50959# 0.01fF
C_D226 VSS a_37820_30485# 0.01fF
C_D227 VSS ANTENNA__1190__A1.DIODE 0.01fF
C_D228 VSS a_4985_51433# 0.01fF
C_D229 VSS a_11067_49871# 0.01fF
C_D23 VSS a_2007_25597# 0.01fF
C_D230 VSS _1194_.A2 0.01fF
C_D231 VSS a_33423_47695# 0.01fF
C_D232 VSS a_2407_49289# 0.01fF
C_D233 VSS pmat.row_n[2] 0.01fF
C_D234 VSS _1154_.X 0.01fF
C_D235 VSS a_38851_28327# 0.01fF
C_D236 VSS a_2215_47375# 0.01fF
C_D237 VSS ANTENNA__1187__B1.DIODE 0.01fF
C_D238 VSS pmat.sw 0.01fF
C_D239 VSS a_3339_59879# 0.01fF
C_D24 VSS a_3339_70759# 0.01fF
C_D240 VSS a_4075_68583# 0.01fF
C_D241 VSS a_2419_53351# 0.01fF
C_D242 VSS a_11041_39860# 0.01fF
C_D243 VSS pmat.rowoff_n[12] 0.01fF
C_D244 VSS clk_vcm 0.01fF
C_D245 VSS a_21279_48999# 0.01fF
C_D246 VSS _1194_.A2 0.01fF
C_D247 VSS ANTENNA__1197__B.DIODE 0.01fF
C_D248 VSS a_4075_50087# 0.01fF
C_D249 VSS a_41731_49525# 0.01fF
C_D25 VSS a_6283_31591# 0.01fF
C_D250 VSS a_24591_28327# 0.01fF
C_D251 VSS a_13641_23439# 0.01fF
C_D252 VSS a_11067_27239# 0.01fF
C_D253 VSS _1183_.A2 0.01fF
C_D254 VSS a_14379_6567# 0.01fF
C_D255 VSS a_30663_50087# 0.01fF
C_D256 VSS pmat.row_n[3] 0.01fF
C_D257 VSS nmat.sw 0.01fF
C_D258 VSS a_35312_31599# 0.01fF
C_D259 VSS a_18563_27791# 0.01fF
C_D26 VSS _1192_.A2 0.01fF
C_D260 VSS a_3746_58487# 0.01fF
C_D261 VSS ANTENNA__1196__A2.DIODE 0.01fF
C_D262 VSS a_1781_9308# 0.01fF
C_D263 VSS a_2007_25597# 0.01fF
C_D264 VSS a_11435_58791# 0.01fF
C_D265 VSS a_5081_53135# 0.01fF
C_D266 VSS pmat.row_n[14] 0.01fF
C_D267 VSS a_5363_70543# 0.01fF
C_D268 VSS ANTENNA__1395__A2.DIODE 0.01fF
C_D269 VSS ANTENNA__1190__A1.DIODE 0.01fF
C_D27 VSS a_13275_48783# 0.01fF
C_D270 VSS clk_ena 0.01fF
C_D271 VSS a_29937_31055# 0.01fF
C_D272 VSS a_3339_59879# 0.01fF
C_D273 VSS a_12309_38659# 0.01fF
C_D274 VSS a_11149_36924# 0.01fF
C_D275 VSS a_13091_18535# 0.01fF
C_D276 VSS a_8583_29199# 0.01fF
C_D277 VSS a_16311_28327# 0.01fF
C_D278 VSS _1194_.B1 0.01fF
C_D279 VSS config_1_in[2] 0.01fF
C_D28 VSS a_3339_59879# 0.01fF
C_D280 VSS a_26891_28327# 0.01fF
C_D281 VSS a_4075_50087# 0.01fF
C_D282 VSS ANTENNA__1195__A1.DIODE 0.01fF
C_D283 VSS a_4075_50087# 0.01fF
C_D284 VSS pmat.en_bit_n[2] 0.01fF
C_D285 VSS a_25879_31591# 0.01fF
C_D286 VSS a_2263_43719# 0.01fF
C_D287 VSS a_17139_30503# 0.01fF
C_D288 VSS nmat.rowon_n[7] 0.01fF
C_D289 VSS pmat.row_n[15] 0.01fF
C_D29 VSS a_7109_29423# 0.01fF
C_D290 VSS a_6467_29415# 0.01fF
C_D291 VSS a_6451_67655# 0.01fF
C_D292 VSS a_6467_29415# 0.01fF
C_D293 VSS a_30571_50959# 0.01fF
C_D294 VSS a_2411_43301# 0.01fF
C_D295 VSS a_25879_31591# 0.01fF
C_D296 VSS a_1586_63927# 0.01fF
C_D297 VSS a_10873_39605# 0.01fF
C_D298 VSS config_2_in[6] 0.01fF
C_D299 VSS a_1923_31743# 0.01fF
C_D3 VSS a_14287_69455# 0.01fF
C_D30 VSS clk_ena 0.01fF
C_D300 VSS a_4259_73807# 0.01fF
C_D301 VSS a_12447_16143# 0.01fF
C_D302 VSS a_17139_30503# 0.01fF
C_D303 VSS pmat.rowon_n[3] 0.01fF
C_D304 VSS a_1586_50247# 0.01fF
C_D305 VSS a_33423_47695# 0.01fF
C_D306 VSS _1196_.B1 0.01fF
C_D307 VSS a_12263_50959# 0.01fF
C_D308 VSS ANTENNA__1197__A.DIODE 0.01fF
C_D309 VSS a_6559_33767# 0.01fF
C_D31 VSS a_10515_15055# 0.01fF
C_D310 VSS a_25879_31591# 0.01fF
C_D311 VSS a_2046_30184# 0.01fF
C_D312 VSS _1224_.X 0.01fF
C_D313 VSS a_6007_33767# 0.01fF
C_D314 VSS a_10515_61839# 0.01fF
C_D315 VSS a_4383_7093# 0.01fF
C_D316 VSS a_1781_9308# 0.01fF
C_D317 VSS a_3339_70759# 0.01fF
C_D318 VSS a_21371_50087# 0.01fF
C_D319 VSS config_2_in[7] 0.01fF
C_D32 VSS _1183_.A2 0.01fF
C_D320 VSS a_2879_57487# 0.01fF
C_D321 VSS pmat.row_n[5] 0.01fF
C_D322 VSS a_10781_42869# 0.01fF
C_D323 VSS a_30571_50959# 0.01fF
C_D324 VSS _1183_.A2 0.01fF
C_D325 VSS nmat.col_n[13] 0.01fF
C_D326 VSS ANTENNA__1395__A1.DIODE 0.01fF
C_D327 VSS _1179_.X 0.01fF
C_D328 VSS _1192_.B1 0.01fF
C_D329 VSS a_5363_33551# 0.01fF
C_D33 VSS cgen.dlycontrol4_in[4] 0.01fF
C_D330 VSS a_1586_18231# 0.01fF
C_D331 VSS ANTENNA__1184__B1.DIODE 0.01fF
C_D332 VSS _1184_.A2 0.01fF
C_D333 VSS a_4075_31591# 0.01fF
C_D334 VSS a_9135_60967# 0.01fF
C_D335 VSS a_17139_30503# 0.01fF
C_D336 VSS a_1586_18231# 0.01fF
C_D337 VSS a_13275_48783# 0.01fF
C_D338 VSS a_2419_53351# 0.01fF
C_D339 VSS a_13091_28327# 0.01fF
C_D34 VSS a_10239_14183# 0.01fF
C_D340 VSS a_7109_29423# 0.01fF
C_D341 VSS _1184_.A2 0.01fF
C_D342 VSS a_18243_28327# 0.01fF
C_D343 VSS a_1957_43567# 0.01fF
C_D344 VSS a_10441_21263# 0.01fF
C_D345 VSS a_6559_33767# 0.01fF
C_D346 VSS a_11067_64015# 0.01fF
C_D347 VSS a_6787_47607# 0.01fF
C_D348 VSS comp_latch 0.01fF
C_D349 VSS a_26891_28327# 0.01fF
C_D35 VSS a_1586_18231# 0.01fF
C_D350 VSS a_7415_29397# 0.01fF
C_D351 VSS a_41731_49525# 0.01fF
C_D352 VSS a_35244_32411# 0.01fF
C_D353 VSS a_11435_58791# 0.01fF
C_D354 VSS a_10515_13967# 0.01fF
C_D355 VSS a_3339_70759# 0.01fF
C_D356 VSS ANTENNA__1195__A1.DIODE 0.01fF
C_D357 VSS a_10239_14183# 0.01fF
C_D358 VSS comp_latch 0.01fF
C_D359 VSS pmat.rowon_n[0] 0.01fF
C_D36 VSS ANTENNA__1183__B1.DIODE 0.01fF
C_D360 VSS _1154_.A 0.01fF
C_D361 VSS a_11067_30287# 0.01fF
C_D362 VSS a_35244_32411# 0.01fF
C_D363 VSS a_1957_43567# 0.01fF
C_D364 VSS a_10873_38517# 0.01fF
C_D365 VSS pmat.rowon_n[7] 0.01fF
C_D366 VSS a_30111_47911# 0.01fF
C_D367 VSS a_2046_30184# 0.01fF
C_D368 VSS a_6467_29415# 0.01fF
C_D369 VSS cgen.dlycontrol4_in[1] 0.01fF
C_D37 VSS nmat.col[19] 0.01fF
C_D370 VSS a_2021_26677# 0.01fF
C_D371 VSS ANTENNA__1187__B1.DIODE 0.01fF
C_D372 VSS a_10883_3303# 0.01fF
C_D373 VSS a_12447_16143# 0.01fF
C_D374 VSS nmat.en_bit_n[1] 0.01fF
C_D375 VSS a_9963_13967# 0.01fF
C_D376 VSS nmat.sw 0.01fF
C_D377 VSS a_24747_29967# 0.01fF
C_D378 VSS a_24591_28327# 0.01fF
C_D379 VSS a_4991_69831# 0.01fF
C_D38 VSS a_15667_27239# 0.01fF
C_D380 VSS ANTENNA_fanout52_A.DIODE 0.01fF
C_D381 VSS a_10515_15055# 0.01fF
C_D382 VSS a_2149_45717# 0.01fF
C_D383 VSS a_25695_28111# 0.01fF
C_D384 VSS a_3339_70759# 0.01fF
C_D385 VSS a_28915_50959# 0.01fF
C_D386 VSS a_24867_53135# 0.01fF
C_D387 VSS a_9785_28879# 0.01fF
C_D388 VSS a_8491_47911# 0.01fF
C_D389 VSS a_40837_46261# 0.01fF
C_D39 VSS a_2263_43719# 0.01fF
C_D390 VSS a_14887_46377# 0.01fF
C_D391 VSS a_2791_57703# 0.01fF
C_D392 VSS a_7717_14735# 0.01fF
C_D393 VSS a_13091_28327# 0.01fF
C_D394 VSS a_4075_50087# 0.01fF
C_D395 VSS a_25695_28111# 0.01fF
C_D396 VSS clk_ena 0.01fF
C_D397 VSS pmat.row_n[13] 0.01fF
C_D398 VSS a_1674_57711# 0.01fF
C_D399 VSS a_10239_14183# 0.01fF
C_D4 VSS nmat.col_n[24] 0.01fF
C_D40 VSS a_1769_14735# 0.01fF
C_D400 VSS a_6787_47607# 0.01fF
C_D401 VSS nmat.col_n[1] 0.01fF
C_D402 VSS pmat.row_n[1] 0.01fF
C_D403 VSS _1187_.A2 0.01fF
C_D404 VSS a_18243_28327# 0.01fF
C_D405 VSS a_10239_14183# 0.01fF
C_D406 VSS a_4383_7093# 0.01fF
C_D407 VSS a_10515_61839# 0.01fF
C_D408 VSS _1154_.X 0.01fF
C_D409 VSS nmat.rowon_n[12] 0.01fF
C_D41 VSS nmat.col_n[31] 0.01fF
C_D410 VSS a_2263_43719# 0.01fF
C_D411 VSS ANTENNA__1187__B1.DIODE 0.01fF
C_D412 VSS nmat.col[12] 0.01fF
C_D413 VSS a_2215_47375# 0.01fF
C_D414 VSS a_8583_29199# 0.01fF
C_D415 VSS ANTENNA__1190__B1.DIODE 0.01fF
C_D416 VSS ANTENNA__1197__A.DIODE 0.01fF
C_D417 VSS pmat.row_n[6] 0.01fF
C_D418 VSS a_2407_49289# 0.01fF
C_D419 VSS a_10239_14183# 0.01fF
C_D42 VSS ANTENNA__1395__A1.DIODE 0.01fF
C_D420 VSS _1192_.A2 0.01fF
C_D421 VSS a_24867_53135# 0.01fF
C_D422 VSS pmat.row_n[15] 0.01fF
C_D423 VSS config_2_in[15] 0.01fF
C_D424 VSS a_38851_28327# 0.01fF
C_D425 VSS start_conversion_in 0.01fF
C_D426 VSS cgen.dlycontrol4_in[0] 0.01fF
C_D427 VSS ANTENNA__1190__B1.DIODE 0.01fF
C_D428 VSS a_3746_58487# 0.01fF
C_D429 VSS a_2215_47375# 0.01fF
C_D43 VSS a_7939_31591# 0.01fF
C_D430 VSS a_1674_57711# 0.01fF
C_D431 VSS a_28915_50959# 0.01fF
C_D432 VSS a_1739_47893# 0.01fF
C_D433 VSS a_21371_50087# 0.01fF
C_D434 VSS a_10515_15055# 0.01fF
C_D435 VSS pmat.row_n[1] 0.01fF
C_D436 VSS a_9963_13967# 0.01fF
C_D437 VSS cgen.enable_dlycontrol_in 0.01fF
C_D438 VSS a_11067_27239# 0.01fF
C_D439 VSS a_13459_28111# 0.01fF
C_D44 VSS a_35244_32411# 0.01fF
C_D440 VSS a_10781_42869# 0.01fF
C_D441 VSS config_2_in[1] 0.01fF
C_D442 VSS a_13091_52047# 0.01fF
C_D443 VSS a_8491_47911# 0.01fF
C_D444 VSS a_2046_30184# 0.01fF
C_D445 VSS _1154_.X 0.01fF
C_D446 VSS a_4075_50087# 0.01fF
C_D447 VSS a_1769_13103# 0.01fF
C_D448 VSS ANTENNA__1190__A1.DIODE 0.01fF
C_D449 VSS pmat.row_n[7] 0.01fF
C_D45 VSS a_6283_31591# 0.01fF
C_D450 VSS a_38851_28327# 0.01fF
C_D451 VSS a_1858_25615# 0.01fF
C_D452 VSS a_3339_70759# 0.01fF
C_D453 VSS nmat.sw 0.01fF
C_D454 VSS a_13643_29415# 0.01fF
C_D455 VSS ANTENNA__1195__A1.DIODE 0.01fF
C_D456 VSS a_11067_27239# 0.01fF
C_D457 VSS ANTENNA__1196__A2.DIODE 0.01fF
C_D458 VSS cgen.dlycontrol1_in[1] 0.01fF
C_D459 VSS _1154_.X 0.01fF
C_D46 VSS a_10515_13967# 0.01fF
C_D460 VSS a_10055_31591# 0.01fF
C_D461 VSS a_37820_30485# 0.01fF
C_D462 VSS a_10873_36341# 0.01fF
C_D463 VSS a_1586_18231# 0.01fF
C_D464 VSS a_10239_14183# 0.01fF
C_D465 VSS a_8491_47911# 0.01fF
C_D466 VSS a_9411_2215# 0.01fF
C_D467 VSS a_40837_46261# 0.01fF
C_D468 VSS a_21371_50087# 0.01fF
C_D469 VSS a_30111_47911# 0.01fF
C_D47 VSS a_7415_29397# 0.01fF
C_D470 VSS a_9411_2215# 0.01fF
C_D471 VSS a_29937_31055# 0.01fF
C_D472 VSS a_4075_31591# 0.01fF
C_D473 VSS a_38851_28327# 0.01fF
C_D474 VSS a_9411_2215# 0.01fF
C_D475 VSS a_33423_47695# 0.01fF
C_D476 VSS a_4259_31375# 0.01fF
C_D477 VSS pmat.rowon_n[7] 0.01fF
C_D478 VSS a_25695_28111# 0.01fF
C_D479 VSS a_10515_15055# 0.01fF
C_D48 VSS pmat.row_n[13] 0.01fF
C_D480 VSS pmat.rowon_n[11] 0.01fF
C_D481 VSS a_37820_30485# 0.01fF
C_D482 VSS a_12069_38517# 0.01fF
C_D483 VSS a_22199_30287# 0.01fF
C_D484 VSS nmat.col[3] 0.01fF
C_D485 VSS clk_ena 0.01fF
C_D486 VSS a_11435_58791# 0.01fF
C_D487 VSS a_11067_49871# 0.01fF
C_D488 VSS pmat.rowon_n[0] 0.01fF
C_D489 VSS a_1957_43567# 0.01fF
C_D49 VSS a_4128_64391# 0.01fF
C_D490 VSS a_11067_30287# 0.01fF
C_D491 VSS pmat.row_n[0] 0.01fF
C_D492 VSS a_4383_7093# 0.01fF
C_D493 VSS a_2835_13077# 0.01fF
C_D494 VSS a_7109_29423# 0.01fF
C_D495 VSS a_4075_68583# 0.01fF
C_D496 VSS a_13091_52047# 0.01fF
C_D497 VSS a_37820_30485# 0.01fF
C_D498 VSS a_30663_50087# 0.01fF
C_D499 VSS a_11067_64015# 0.01fF
C_D5 VSS _1179_.X 0.01fF
C_D50 VSS a_21739_29415# 0.01fF
C_D500 VSS a_11067_64015# 0.01fF
C_D501 VSS a_13275_48783# 0.01fF
C_D502 VSS a_35244_32411# 0.01fF
C_D503 VSS pmat.row_n[12] 0.01fF
C_D504 VSS a_7109_29423# 0.01fF
C_D505 VSS a_2263_43719# 0.01fF
C_D506 VSS a_11067_16359# 0.01fF
C_D507 VSS a_2046_30184# 0.01fF
C_D508 VSS config_1_in[5] 0.01fF
C_D509 VSS a_1769_47919# 0.01fF
C_D51 VSS a_2648_29397# 0.01fF
C_D510 VSS ANTENNA__1195__A1.DIODE 0.01fF
C_D511 VSS a_4259_73807# 0.01fF
C_D512 VSS cgen.dlycontrol1_in[4] 0.01fF
C_D513 VSS a_40837_46261# 0.01fF
C_D514 VSS ANTENNA__1395__A1.DIODE 0.01fF
C_D515 VSS a_1586_63927# 0.01fF
C_D516 VSS a_4075_31591# 0.01fF
C_D517 VSS a_2411_43301# 0.01fF
C_D518 VSS a_4985_51433# 0.01fF
C_D519 VSS a_1586_50247# 0.01fF
C_D52 VSS a_16311_28327# 0.01fF
C_D520 VSS a_1586_50247# 0.01fF
C_D521 VSS _1194_.B1 0.01fF
C_D522 VSS a_26891_28327# 0.01fF
C_D523 VSS a_2149_45717# 0.01fF
C_D524 VSS a_3615_71631# 0.01fF
C_D525 VSS nmat.col[28] 0.01fF
C_D526 VSS a_11067_27239# 0.01fF
C_D527 VSS a_10515_61839# 0.01fF
C_D528 VSS a_9135_60967# 0.01fF
C_D529 VSS a_6787_47607# 0.01fF
C_D53 VSS a_10883_3303# 0.01fF
C_D530 VSS a_5651_66975# 0.01fF
C_D531 VSS a_4075_50087# 0.01fF
C_D532 VSS ANTENNA__1197__A.DIODE 0.01fF
C_D533 VSS a_4991_69831# 0.01fF
C_D534 VSS config_2_in[12] 0.01fF
C_D535 VSS cgen.dlycontrol2_in[1] 0.01fF
C_D536 VSS a_4383_7093# 0.01fF
C_D537 VSS a_10441_21263# 0.01fF
C_D538 VSS a_11149_40188# 0.01fF
C_D539 VSS a_5351_19913# 0.01fF
C_D54 VSS a_10515_13967# 0.01fF
C_D540 VSS a_2791_57703# 0.01fF
C_D541 VSS a_10055_31591# 0.01fF
C_D542 VSS a_2879_57487# 0.01fF
C_D543 VSS a_1781_9308# 0.01fF
C_D544 VSS a_15667_27239# 0.01fF
C_D545 VSS nmat.col_n[26] 0.01fF
C_D546 VSS pmat.row_n[7] 0.01fF