* XSpice netlist created from SPICE and liberty sources by spi2xspice.py
* NGSPICE file created from adc_core_digital.ext - technology: sky130A
.subckt adc_core_digital a_VGND a_VPWR a_clk_dig_in a_comparator_in a_config_1_in_0_ a_config_1_in_1_ a_config_1_in_2_ a_config_1_in_3_ a_config_1_in_4_ a_config_1_in_5_ a_config_1_in_6_ a_config_1_in_7_ a_config_1_in_8_ a_config_1_in_9_ a_config_1_in_10_ a_config_1_in_11_ a_config_1_in_12_ a_config_1_in_13_ a_config_1_in_14_ a_config_1_in_15_ a_config_2_in_0_ a_config_2_in_1_ a_config_2_in_2_ a_config_2_in_3_ a_config_2_in_4_ a_config_2_in_5_ a_config_2_in_6_ a_config_2_in_7_ a_config_2_in_8_ a_config_2_in_9_ a_config_2_in_10_ a_config_2_in_11_ a_config_2_in_12_ a_config_2_in_13_ a_config_2_in_14_ a_config_2_in_15_ a_conv_finished_out a_enable_loop_out a_nmatrix_bincap_out_n_0_ a_nmatrix_bincap_out_n_1_ a_nmatrix_bincap_out_n_2_ a_nmatrix_c0_out_n a_nmatrix_col_out_n_0_ a_nmatrix_col_out_n_1_ a_nmatrix_col_out_n_2_ a_nmatrix_col_out_n_3_ a_nmatrix_col_out_n_4_ a_nmatrix_col_out_n_5_ a_nmatrix_col_out_n_6_ a_nmatrix_col_out_n_7_ a_nmatrix_col_out_n_8_ a_nmatrix_col_out_n_9_ a_nmatrix_col_out_n_10_ a_nmatrix_col_out_n_11_ a_nmatrix_col_out_n_12_ a_nmatrix_col_out_n_13_ a_nmatrix_col_out_n_14_ a_nmatrix_col_out_n_15_ a_nmatrix_col_out_n_16_ a_nmatrix_col_out_n_17_ a_nmatrix_col_out_n_18_ a_nmatrix_col_out_n_19_ a_nmatrix_col_out_n_20_ a_nmatrix_col_out_n_21_ a_nmatrix_col_out_n_22_ a_nmatrix_col_out_n_23_ a_nmatrix_col_out_n_24_ a_nmatrix_col_out_n_25_ a_nmatrix_col_out_n_26_ a_nmatrix_col_out_n_27_ a_nmatrix_col_out_n_28_ a_nmatrix_col_out_n_29_ a_nmatrix_col_out_n_30_ a_nmatrix_col_out_n_31_ a_nmatrix_row_out_n_0_ a_nmatrix_row_out_n_1_ a_nmatrix_row_out_n_2_ a_nmatrix_row_out_n_3_ a_nmatrix_row_out_n_4_ a_nmatrix_row_out_n_5_ a_nmatrix_row_out_n_6_ a_nmatrix_row_out_n_7_ a_nmatrix_row_out_n_8_ a_nmatrix_row_out_n_9_ a_nmatrix_row_out_n_10_ a_nmatrix_row_out_n_11_ a_nmatrix_row_out_n_12_ a_nmatrix_row_out_n_13_ a_nmatrix_row_out_n_14_ a_nmatrix_row_out_n_15_ a_nmatrix_rowon_out_n_0_ a_nmatrix_rowon_out_n_1_ a_nmatrix_rowon_out_n_2_ a_nmatrix_rowon_out_n_3_ a_nmatrix_rowon_out_n_4_ a_nmatrix_rowon_out_n_5_ a_nmatrix_rowon_out_n_6_ a_nmatrix_rowon_out_n_7_ a_nmatrix_rowon_out_n_8_ a_nmatrix_rowon_out_n_9_ a_nmatrix_rowon_out_n_10_ a_nmatrix_rowon_out_n_11_ a_nmatrix_rowon_out_n_12_ a_nmatrix_rowon_out_n_13_ a_nmatrix_rowon_out_n_14_ a_nmatrix_rowon_out_n_15_ a_pmatrix_bincap_out_n_0_ a_pmatrix_bincap_out_n_1_ a_pmatrix_bincap_out_n_2_ a_pmatrix_c0_out_n a_pmatrix_col_out_n_0_ a_pmatrix_col_out_n_1_ a_pmatrix_col_out_n_2_ a_pmatrix_col_out_n_3_ a_pmatrix_col_out_n_4_ a_pmatrix_col_out_n_5_ a_pmatrix_col_out_n_6_ a_pmatrix_col_out_n_7_ a_pmatrix_col_out_n_8_ a_pmatrix_col_out_n_9_ a_pmatrix_col_out_n_10_ a_pmatrix_col_out_n_11_ a_pmatrix_col_out_n_12_ a_pmatrix_col_out_n_13_ a_pmatrix_col_out_n_14_ a_pmatrix_col_out_n_15_ a_pmatrix_col_out_n_16_ a_pmatrix_col_out_n_17_ a_pmatrix_col_out_n_18_ a_pmatrix_col_out_n_19_ a_pmatrix_col_out_n_20_ a_pmatrix_col_out_n_21_ a_pmatrix_col_out_n_22_ a_pmatrix_col_out_n_23_ a_pmatrix_col_out_n_24_ a_pmatrix_col_out_n_25_ a_pmatrix_col_out_n_26_ a_pmatrix_col_out_n_27_ a_pmatrix_col_out_n_28_ a_pmatrix_col_out_n_29_ a_pmatrix_col_out_n_30_ a_pmatrix_col_out_n_31_ a_pmatrix_row_out_n_0_ a_pmatrix_row_out_n_1_ a_pmatrix_row_out_n_2_ a_pmatrix_row_out_n_3_ a_pmatrix_row_out_n_4_ a_pmatrix_row_out_n_5_ a_pmatrix_row_out_n_6_ a_pmatrix_row_out_n_7_ a_pmatrix_row_out_n_8_ a_pmatrix_row_out_n_9_ a_pmatrix_row_out_n_10_ a_pmatrix_row_out_n_11_ a_pmatrix_row_out_n_12_ a_pmatrix_row_out_n_13_ a_pmatrix_row_out_n_14_ a_pmatrix_row_out_n_15_ a_pmatrix_rowon_out_n_0_ a_pmatrix_rowon_out_n_1_ a_pmatrix_rowon_out_n_2_ a_pmatrix_rowon_out_n_3_ a_pmatrix_rowon_out_n_4_ a_pmatrix_rowon_out_n_5_ a_pmatrix_rowon_out_n_6_ a_pmatrix_rowon_out_n_7_ a_pmatrix_rowon_out_n_8_ a_pmatrix_rowon_out_n_9_ a_pmatrix_rowon_out_n_10_ a_pmatrix_rowon_out_n_11_ a_pmatrix_rowon_out_n_12_ a_pmatrix_rowon_out_n_13_ a_pmatrix_rowon_out_n_14_ a_pmatrix_rowon_out_n_15_ a_result_out_0_ a_result_out_1_ a_result_out_2_ a_result_out_3_ a_result_out_4_ a_result_out_5_ a_result_out_6_ a_result_out_7_ a_result_out_8_ a_result_out_9_ a_result_out_10_ a_result_out_11_ a_result_out_12_ a_result_out_13_ a_result_out_14_ a_result_out_15_ a_rst_n a_sample_matrix_out a_sample_matrix_out_n a_sample_switch_out a_sample_switch_out_n
A_1270_ [_1535_/A _1270_/B] _1271_/A d_lut_sky130_fd_sc_hd__and2_2
A_1606_ [_1713_/Q input4/X _1606_/S] _1607_/A d_lut_sky130_fd_sc_hd__mux2_1
A_0985_ [_0985_/A _0985_/B _0985_/C] _1390_/B d_lut_sky130_fd_sc_hd__nor3_2
A_1537_ [_1667_/D _1549_/B _1533_/X _1536_/Y _1351_/B] _1537_/X d_lut_sky130_fd_sc_hd__o2111a_2
A_1399_ [_1427_/A _1397_/B _1415_/A _1398_/X] _1725_/A d_lut_sky130_fd_sc_hd__o22ai_4
A_1468_ [_1606_/S _1653_/Q _1468_/S] _1469_/A d_lut_sky130_fd_sc_hd__mux2_1
A_0770_ [_1693_/Q _0771_/C _1694_/Q] _0770_/Y d_lut_sky130_fd_sc_hd__a21boi_2
A_1322_ [_1672_/Q _1317_/B _1319_/Y _1321_/Y] _1673_/D d_lut_sky130_fd_sc_hd__a31o_2
A_1253_ [_1535_/A _1270_/B _1708_/Q] _1253_/X d_lut_sky130_fd_sc_hd__a21o_2
A_1184_ [_1184_/A] _1184_/X d_lut_sky130_fd_sc_hd__buf_1
A_0968_ [_0945_/A _0966_/Y _0967_/X] _0968_/X d_lut_sky130_fd_sc_hd__a21bo_2
A_0899_ [_0869_/B _0899_/B _0899_/C] _0899_/X d_lut_sky130_fd_sc_hd__and3b_2
A_0822_ [_0821_/X input2/X _1714_/Q] _0822_/X d_lut_sky130_fd_sc_hd__mux2_1
A_0753_ [_1698_/Q _0758_/C] _0754_/B d_lut_sky130_fd_sc_hd__xor2_2
A_1305_ [_1666_/Q _1667_/Q _1668_/Q] _1309_/C d_lut_sky130_fd_sc_hd__and3_2
A_1236_ [_1567_/A _1236_/B] _1237_/B d_lut_sky130_fd_sc_hd__nand2_2
A_1098_ [_1157_/A _1046_/A _1089_/Y _1044_/A] _1098_/X d_lut_sky130_fd_sc_hd__o31a_2
A_1167_ [_1081_/X _1164_/Y _1166_/X _1097_/X] _1167_/X d_lut_sky130_fd_sc_hd__a22o_2
A_1021_ [_1021_/A _1021_/B] _1171_/A d_lut_sky130_fd_sc_hd__nor2_8
A_0805_ [_0782_/Y _0805_/B _0805_/C _0805_/D] _0806_/B d_lut_sky130_fd_sc_hd__and4b_2
A_0736_ [_1714_/Q _1693_/Q _0771_/C _1713_/Q] _0736_/X d_lut_sky130_fd_sc_hd__or4b_2
A_1219_ [_1218_/A _1214_/X _1218_/X _1209_/B] _1246_/B d_lut_sky130_fd_sc_hd__a22o_4
A_1570_ [_1668_/D _1485_/B _1567_/B _1539_/C _1670_/D] _1570_/X d_lut_sky130_fd_sc_hd__a32o_2
A_1004_ [_1004_/A _1004_/B _1004_/C] _1005_/B d_lut_sky130_fd_sc_hd__or3_2
A_1699_ _1699_/D _1714_/CLK NULL ~fanout179/X _1699_/Q NULL ddflop
Aoutput31 [_1173_/X] nmatrix_col_out_n_24_ d_lut_sky130_fd_sc_hd__buf_4
Aoutput42 [_1140_/X] nmatrix_col_out_n_5_ d_lut_sky130_fd_sc_hd__buf_4
Aoutput75 [_1729_/X] nmatrix_rowon_out_n_8_ d_lut_sky130_fd_sc_hd__buf_4
Aoutput64 [_1732_/X] nmatrix_rowon_out_n_11_ d_lut_sky130_fd_sc_hd__buf_4
Aoutput20 [_1156_/X] nmatrix_col_out_n_14_ d_lut_sky130_fd_sc_hd__buf_4
Aoutput53 [_1721_/A] nmatrix_row_out_n_1_ d_lut_sky130_fd_sc_hd__buf_4
Aoutput86 [_1094_/Y] pmatrix_col_out_n_15_ d_lut_sky130_fd_sc_hd__buf_4
Aoutput97 [_1121_/Y] pmatrix_col_out_n_25_ d_lut_sky130_fd_sc_hd__buf_4
A_1622_ _1622_/D _1711_/CLK NULL ~fanout183/X _1622_/Q NULL ddflop
A_1484_ [_1660_/D _1482_/X _1567_/B] _1484_/X d_lut_sky130_fd_sc_hd__mux2_1
A_1553_ [_1685_/Q _1530_/B _1530_/C _1552_/X] _1553_/X d_lut_sky130_fd_sc_hd__a31o_2
A_0984_ [_0957_/Y _0990_/B _0983_/Y _0990_/A] _0985_/C d_lut_sky130_fd_sc_hd__a22o_2
A_1536_ [_1534_/X _1535_/Y _1248_/B _1248_/C] _1536_/Y d_lut_sky130_fd_sc_hd__o211ai_2
A_1605_ [_1605_/A] _1712_/D d_lut_sky130_fd_sc_hd__buf_1
A_1398_ [_1405_/B _1405_/C _1171_/B] _1398_/X d_lut_sky130_fd_sc_hd__a21o_2
A_1467_ [_1467_/A] _1652_/D d_lut_sky130_fd_sc_hd__buf_1
A_1321_ [_1672_/Q _1317_/B _1320_/Y] _1321_/Y d_lut_sky130_fd_sc_hd__a21oi_2
A_1252_ [_1488_/A] _1661_/D d_lut_sky130_fd_sc_hd__inv_2
A_1183_ [_1183_/A _1183_/B] _1184_/A d_lut_sky130_fd_sc_hd__or2_2
A_0967_ [_1616_/Q _0966_/B _0966_/C _0940_/B _1617_/Q] _0967_/X d_lut_sky130_fd_sc_hd__o32a_2
A_1519_ [_1681_/Q _1530_/B _1530_/C _1518_/X] _1519_/X d_lut_sky130_fd_sc_hd__a31o_2
A_0898_ [_0898_/A _0898_/B _0898_/C] _0898_/Y d_lut_sky130_fd_sc_hd__nand3_4
A_0752_ [_1697_/Q _0752_/B] _0758_/C d_lut_sky130_fd_sc_hd__and2_2
A_0821_ [_1697_/Q _1698_/Q _1712_/Q] _0821_/X d_lut_sky130_fd_sc_hd__mux2_1
A_1304_ [_1433_/S _1543_/A] _1668_/D d_lut_sky130_fd_sc_hd__nor2_2
A_1235_ [_1655_/Q _1235_/B] _1236_/B d_lut_sky130_fd_sc_hd__xnor2_2
A_1166_ [_1061_/A _1046_/A _1089_/Y _1093_/A] _1166_/X d_lut_sky130_fd_sc_hd__a22o_2
A_1097_ [_1097_/A] _1097_/X d_lut_sky130_fd_sc_hd__buf_4
A_1020_ [_1020_/A] _1164_/A d_lut_sky130_fd_sc_hd__buf_12
A_0804_ [_0909_/B _0926_/B _0810_/B] _0805_/D d_lut_sky130_fd_sc_hd__or3_2
A_0735_ [_1693_/Q _0771_/C _0734_/Y _0728_/X] _0735_/X d_lut_sky130_fd_sc_hd__a22o_2
A_1218_ [_1218_/A _1218_/B _1218_/C _1218_/D] _1218_/X d_lut_sky130_fd_sc_hd__and4_2
A_1149_ [_1061_/A _1392_/A _1089_/Y _1093_/A] _1149_/X d_lut_sky130_fd_sc_hd__a22o_2
A_1003_ [_1638_/Q _1752_/A _1003_/C _1653_/Q] _1004_/C d_lut_sky130_fd_sc_hd__or4b_2
A_1698_ _1698_/D _1714_/CLK NULL ~fanout181/X _1698_/Q NULL ddflop
Aoutput54 [_1722_/A] nmatrix_row_out_n_2_ d_lut_sky130_fd_sc_hd__buf_4
Aoutput10 [_1624_/Q] conv_finished_out d_lut_sky130_fd_sc_hd__buf_4
Aoutput43 [_1142_/X] nmatrix_col_out_n_6_ d_lut_sky130_fd_sc_hd__buf_4
Aoutput21 [_1158_/X] nmatrix_col_out_n_15_ d_lut_sky130_fd_sc_hd__buf_4
Aoutput32 [_1174_/X] nmatrix_col_out_n_25_ d_lut_sky130_fd_sc_hd__buf_4
Aoutput65 [_1733_/X] nmatrix_rowon_out_n_12_ d_lut_sky130_fd_sc_hd__buf_4
Aoutput76 [_1730_/X] nmatrix_rowon_out_n_9_ d_lut_sky130_fd_sc_hd__buf_4
Aoutput87 [_1096_/Y] pmatrix_col_out_n_16_ d_lut_sky130_fd_sc_hd__buf_4
Aoutput98 [_1122_/Y] pmatrix_col_out_n_26_ d_lut_sky130_fd_sc_hd__buf_4
A_1552_ [_1707_/Q _1558_/B] _1552_/X d_lut_sky130_fd_sc_hd__and2_2
A_1621_ _1621_/D _1711_/CLK NULL ~fanout183/X _1621_/Q NULL ddflop
A_1483_ [_1483_/A _1483_/B] _1567_/B d_lut_sky130_fd_sc_hd__nor2_8
A_0983_ [_0835_/X _0982_/A _1618_/Q] _0983_/Y d_lut_sky130_fd_sc_hd__o21ai_2
A_1535_ [_1535_/A _1535_/B] _1535_/Y d_lut_sky130_fd_sc_hd__nor2_2
A_1604_ [_1712_/Q input3/X _1606_/S] _1605_/A d_lut_sky130_fd_sc_hd__mux2_1
A_1397_ [_1397_/A _1397_/B] _1724_/A d_lut_sky130_fd_sc_hd__nor2_2
A_1466_ [_1653_/Q _0990_/A _1468_/S] _1467_/A d_lut_sky130_fd_sc_hd__mux2_1
A_1320_ [_1673_/Q _1567_/A] _1320_/Y d_lut_sky130_fd_sc_hd__nand2_2
A_1251_ [_1707_/Q _1515_/S] _1488_/A d_lut_sky130_fd_sc_hd__xor2_4
A_1182_ [_1046_/X _1135_/Y _1181_/X _1097_/X] _1182_/X d_lut_sky130_fd_sc_hd__a22o_2
A_0966_ [_1615_/Q _0966_/B _0966_/C] _0966_/Y d_lut_sky130_fd_sc_hd__nor3_2
A_0897_ [_0859_/B _0859_/C _0859_/A _0878_/A] _0898_/C d_lut_sky130_fd_sc_hd__a211o_2
A_1518_ [_1703_/Q _1558_/B] _1518_/X d_lut_sky130_fd_sc_hd__and2_2
A_1449_ [_1449_/A] _1643_/D d_lut_sky130_fd_sc_hd__buf_1
A_0751_ [_0751_/A] _1697_/D d_lut_sky130_fd_sc_hd__buf_1
A_0820_ [input2/X _1699_/Q _0820_/S] _0820_/X d_lut_sky130_fd_sc_hd__mux2_1
A_1303_ [_1668_/Q _1303_/B] _1543_/A d_lut_sky130_fd_sc_hd__xnor2_2
A_1234_ [_1654_/Q _1700_/Q] _1235_/B d_lut_sky130_fd_sc_hd__nand2_2
A_1096_ [_1064_/X _1095_/X _1018_/X _1081_/X] _1096_/Y d_lut_sky130_fd_sc_hd__a31oi_4
A_1165_ [_1081_/X _1164_/Y _1102_/X _1097_/X] _1165_/X d_lut_sky130_fd_sc_hd__a22o_2
A_0949_ [_0949_/A _0959_/C] _0949_/X d_lut_sky130_fd_sc_hd__or2_2
A_0803_ [_1646_/Q _1645_/Q] _0810_/B d_lut_sky130_fd_sc_hd__xnor2_2
A_0734_ [_1714_/Q _1713_/Q _1712_/Q] _0734_/Y d_lut_sky130_fd_sc_hd__nand3b_2
A_1217_ [_1704_/Q _1658_/Q] _1218_/D d_lut_sky130_fd_sc_hd__or2_2
A_1079_ [_1413_/A _1079_/B] _1079_/Y d_lut_sky130_fd_sc_hd__nor2_2
A_1148_ [_1064_/X _1146_/X _1147_/X _1093_/X] _1148_/X d_lut_sky130_fd_sc_hd__o22a_2
A_1002_ [_1620_/Q _1002_/B] _1386_/B d_lut_sky130_fd_sc_hd__and2_2
A_1697_ _1697_/D _1714_/CLK NULL ~fanout181/X _1697_/Q NULL ddflop
Aoutput55 [_1723_/A] nmatrix_row_out_n_3_ d_lut_sky130_fd_sc_hd__buf_4
Aoutput44 [_1143_/X] nmatrix_col_out_n_7_ d_lut_sky130_fd_sc_hd__buf_4
Aoutput99 [_1124_/Y] pmatrix_col_out_n_27_ d_lut_sky130_fd_sc_hd__buf_4
Aoutput11 [_1753_/A] enable_loop_out d_lut_sky130_fd_sc_hd__buf_4
Aoutput77 [_0817_/A] pmatrix_bincap_out_n_0_ d_lut_sky130_fd_sc_hd__buf_4
Aoutput33 [_1177_/X] nmatrix_col_out_n_26_ d_lut_sky130_fd_sc_hd__buf_4
Aoutput88 [_1100_/Y] pmatrix_col_out_n_17_ d_lut_sky130_fd_sc_hd__buf_4
Aoutput66 [_1734_/X] nmatrix_rowon_out_n_13_ d_lut_sky130_fd_sc_hd__buf_4
Aoutput22 [_1159_/X] nmatrix_col_out_n_16_ d_lut_sky130_fd_sc_hd__buf_4
A_1482_ [_1656_/D _1658_/D _1550_/A] _1482_/X d_lut_sky130_fd_sc_hd__mux2_1
A_1551_ [_1566_/A _1665_/D _1522_/B _1550_/X] _1551_/X d_lut_sky130_fd_sc_hd__a211o_2
A_1620_ _1620_/D _1711_/CLK NULL ~fanout183/X _1620_/Q NULL ddflop
A_1749_ [_1749_/A] _1749_/X d_lut_sky130_fd_sc_hd__buf_1
A_0982_ [_0982_/A _0982_/B] _0990_/B d_lut_sky130_fd_sc_hd__or2_4
A_1534_ [_1707_/Q _1661_/Q _1534_/C _1534_/D] _1534_/X d_lut_sky130_fd_sc_hd__and4_2
A_1603_ [_1711_/Q _1602_/B _1602_/Y _1014_/B] _1711_/D d_lut_sky130_fd_sc_hd__a22o_2
A_1465_ [_1465_/A] _1651_/D d_lut_sky130_fd_sc_hd__buf_1
A_1396_ [_1429_/C] _1397_/B d_lut_sky130_fd_sc_hd__buf_8
A_1250_ [_1248_/X _1249_/Y _1567_/A] _1515_/S d_lut_sky130_fd_sc_hd__o21ai_4
A_1181_ [_1061_/A _1081_/A _1089_/Y _1046_/A] _1181_/X d_lut_sky130_fd_sc_hd__a31o_2
A_0965_ [_0962_/X _0966_/C _0966_/B] _0965_/Y d_lut_sky130_fd_sc_hd__o21ai_2
A_0896_ [_0859_/B _0859_/C _0878_/C _0878_/B _0859_/A] _0898_/B d_lut_sky130_fd_sc_hd__a221o_2
A_1517_ [_1659_/D _1535_/B _1351_/B _1515_/X _1516_/X] _1517_/X d_lut_sky130_fd_sc_hd__o2111a_2
A_1448_ [_1644_/Q _1643_/Q _1460_/S] _1449_/A d_lut_sky130_fd_sc_hd__mux2_1
A_1379_ [_1382_/B _1379_/B] _1636_/D d_lut_sky130_fd_sc_hd__nor2_2
A_0750_ [_0768_/A _0750_/B] _0751_/A d_lut_sky130_fd_sc_hd__and2_2
A_1302_ [_1272_/S _1290_/Y _1309_/B _1666_/Q _1667_/Q] _1303_/B d_lut_sky130_fd_sc_hd__o2111a_2
A_1233_ [_1708_/Q _1233_/B] _1662_/D d_lut_sky130_fd_sc_hd__xnor2_4
A_1164_ [_1164_/A _1413_/A] _1164_/Y d_lut_sky130_fd_sc_hd__nand2_2
A_1095_ [_1095_/A] _1095_/X d_lut_sky130_fd_sc_hd__buf_6
A_0948_ [_0948_/A _0959_/C _0948_/C] _0951_/B d_lut_sky130_fd_sc_hd__nor3_2
A_0879_ [_0878_/B _0878_/C _0878_/A] _0898_/A d_lut_sky130_fd_sc_hd__a21o_2
A_0802_ [_1648_/Q _1647_/Q] _0909_/B d_lut_sky130_fd_sc_hd__or2_2
A_0733_ [_1692_/Q _1691_/Q _1690_/Q] _0771_/C d_lut_sky130_fd_sc_hd__and3_4
A_1216_ [_1704_/Q _1658_/Q] _1218_/C d_lut_sky130_fd_sc_hd__nand2_2
A_1078_ [_1171_/B _1087_/B _1044_/A] _1078_/Y d_lut_sky130_fd_sc_hd__a21oi_2
A_1147_ [_1097_/A _1051_/X _1171_/B] _1147_/X d_lut_sky130_fd_sc_hd__o21a_2
A_1001_ [_1606_/S _1001_/B] _1620_/D d_lut_sky130_fd_sc_hd__nor2_2
A_1696_ _1696_/D _1714_/CLK NULL ~fanout181/X _1696_/Q NULL ddflop
Aoutput23 [_1161_/X] nmatrix_col_out_n_17_ d_lut_sky130_fd_sc_hd__buf_4
Aoutput12 [_0817_/Y] nmatrix_bincap_out_n_0_ d_lut_sky130_fd_sc_hd__buf_4
Aoutput34 [_1180_/Y] nmatrix_col_out_n_27_ d_lut_sky130_fd_sc_hd__buf_4
Aoutput67 [_1735_/X] nmatrix_rowon_out_n_14_ d_lut_sky130_fd_sc_hd__buf_4
Aoutput45 [_1144_/X] nmatrix_col_out_n_8_ d_lut_sky130_fd_sc_hd__buf_4
Aoutput89 [_1103_/Y] pmatrix_col_out_n_18_ d_lut_sky130_fd_sc_hd__buf_4
Aoutput78 [_1016_/Y] pmatrix_bincap_out_n_1_ d_lut_sky130_fd_sc_hd__buf_4
Aoutput56 [_1724_/A] nmatrix_row_out_n_4_ d_lut_sky130_fd_sc_hd__buf_4
A_1481_ [_1351_/B _1479_/X _1480_/X] _1675_/D d_lut_sky130_fd_sc_hd__a21o_2
A_1550_ [_1550_/A _1667_/D] _1550_/X d_lut_sky130_fd_sc_hd__and2_2
A_1748_ [_1748_/A] _1748_/X d_lut_sky130_fd_sc_hd__buf_1
A_1679_ _1679_/D _1679_/CLK NULL ~fanout172/X _1679_/Q NULL ddflop
A_0981_ [_0985_/A _0985_/B _0975_/S _0980_/Y] _1390_/A d_lut_sky130_fd_sc_hd__o211a_2
A_1602_ [_1606_/S _1602_/B] _1602_/Y d_lut_sky130_fd_sc_hd__nor2_2
A_1533_ [_1248_/B _1248_/C _1531_/X _1532_/X] _1533_/X d_lut_sky130_fd_sc_hd__a22o_2
A_1395_ [_1171_/B _1429_/D _1429_/C _1427_/A] _1723_/A d_lut_sky130_fd_sc_hd__a211oi_4
A_1464_ [_0990_/A _0979_/A _1468_/S] _1465_/A d_lut_sky130_fd_sc_hd__mux2_1
A_1180_ [_1164_/A _1178_/Y _1179_/Y] _1180_/Y d_lut_sky130_fd_sc_hd__a21oi_2
A_0964_ [_0962_/X _0966_/C _0931_/B _0931_/C] _0964_/X d_lut_sky130_fd_sc_hd__a2bb2o_2
A_1516_ [_1663_/D _1538_/C] _1516_/X d_lut_sky130_fd_sc_hd__or2_2
A_0895_ [_0895_/A _0945_/A] _0895_/X d_lut_sky130_fd_sc_hd__and2_2
A_1378_ [_1636_/Q _1378_/B] _1379_/B d_lut_sky130_fd_sc_hd__xor2_2
A_1447_ [_1447_/A] _1642_/D d_lut_sky130_fd_sc_hd__buf_1
A_1301_ [_1301_/A] _1667_/D d_lut_sky130_fd_sc_hd__buf_2
A_1232_ [_1531_/B _1232_/B _1232_/C] _1233_/B d_lut_sky130_fd_sc_hd__or3_4
A_1163_ [_1163_/A] _1163_/X d_lut_sky130_fd_sc_hd__buf_1
A_1094_ [_1018_/X _1075_/Y _1093_/X] _1094_/Y d_lut_sky130_fd_sc_hd__a21oi_2
A_0947_ [_0949_/A _0959_/C _0948_/C] _0951_/A d_lut_sky130_fd_sc_hd__and3_2
A_0878_ [_0878_/A _0878_/B _0878_/C] _0901_/C d_lut_sky130_fd_sc_hd__and3_2
A_0801_ [_0854_/B _0926_/B _0814_/C] _0805_/C d_lut_sky130_fd_sc_hd__or3_2
A_0732_ [_0730_/X _0731_/X _1693_/Q _1692_/Q] _0732_/X d_lut_sky130_fd_sc_hd__a211o_2
A_1215_ [_1705_/Q _1659_/Q] _1218_/B d_lut_sky130_fd_sc_hd__nand2_2
A_1146_ [_1392_/A _1076_/B _1036_/X] _1146_/X d_lut_sky130_fd_sc_hd__o21a_2
A_1077_ [_1036_/X _1074_/Y _1075_/Y _1157_/B _1076_/X] _1077_/Y d_lut_sky130_fd_sc_hd__a221oi_4
A_1000_ [_1620_/Q _1000_/B] _1001_/B d_lut_sky130_fd_sc_hd__xnor2_2
A_1695_ _1695_/D _1695_/CLK NULL ~fanout181/X _1695_/Q NULL ddflop
A_1129_ [_1141_/A _1139_/C _1157_/B _1095_/X] _1130_/B d_lut_sky130_fd_sc_hd__o31a_2
Aoutput24 [_1163_/X] nmatrix_col_out_n_18_ d_lut_sky130_fd_sc_hd__buf_4
Aoutput57 [_1725_/A] nmatrix_row_out_n_5_ d_lut_sky130_fd_sc_hd__buf_4
Aoutput13 [_1016_/A] nmatrix_bincap_out_n_1_ d_lut_sky130_fd_sc_hd__buf_4
Aoutput46 [_1145_/Y] nmatrix_col_out_n_9_ d_lut_sky130_fd_sc_hd__buf_4
Aoutput35 [_1182_/X] nmatrix_col_out_n_28_ d_lut_sky130_fd_sc_hd__buf_4
Aoutput68 [_1722_/X] nmatrix_rowon_out_n_1_ d_lut_sky130_fd_sc_hd__buf_4
Aoutput79 [_0870_/A] pmatrix_bincap_out_n_2_ d_lut_sky130_fd_sc_hd__buf_4
A_1480_ [_1675_/Q _1530_/B _1530_/C] _1480_/X d_lut_sky130_fd_sc_hd__and3_2
A_1678_ _1678_/D _1689_/CLK NULL ~fanout171/X _1678_/Q NULL ddflop
A_1747_ [_1747_/A] _1747_/X d_lut_sky130_fd_sc_hd__buf_1
A_0980_ [_1618_/Q _0992_/A] _0980_/Y d_lut_sky130_fd_sc_hd__nor2_2
A_1532_ [_1532_/A _1707_/Q _1661_/Q] _1532_/X d_lut_sky130_fd_sc_hd__or3b_2
A_1601_ [_1001_/B _1600_/X _1602_/B _1710_/Q] _1710_/D d_lut_sky130_fd_sc_hd__a2bb2o_2
A_1394_ [_1427_/A _1429_/C _1415_/A] _1722_/A d_lut_sky130_fd_sc_hd__nor3_4
A_1463_ [_1463_/A] _1650_/D d_lut_sky130_fd_sc_hd__buf_1
A_0963_ [_1617_/Q _0963_/B _0963_/C _0963_/D] _0966_/C d_lut_sky130_fd_sc_hd__and4_2
A_0894_ [_0900_/A _0900_/B] _0945_/A d_lut_sky130_fd_sc_hd__or2_4
A_1515_ [_1513_/X _1514_/X _1515_/S] _1515_/X d_lut_sky130_fd_sc_hd__mux2_1
A_1377_ [_1635_/Q _1377_/B] _1378_/B d_lut_sky130_fd_sc_hd__nand2_2
A_1446_ [_1643_/Q _1642_/Q _1460_/S] _1447_/A d_lut_sky130_fd_sc_hd__mux2_1
A_1300_ [_1297_/X _1298_/Y _1565_/B] _1301_/A d_lut_sky130_fd_sc_hd__mux2_1
A_1231_ [_1535_/A _1270_/B _1662_/Q] _1232_/C d_lut_sky130_fd_sc_hd__a21oi_2
A_1162_ [_1097_/A _1105_/X _1099_/X] _1163_/A d_lut_sky130_fd_sc_hd__o21ba_2
A_1093_ [_1093_/A] _1093_/X d_lut_sky130_fd_sc_hd__buf_4
A_0946_ [_0942_/Y _0945_/X _0985_/A] _1021_/A d_lut_sky130_fd_sc_hd__mux2_4
A_0877_ [_0926_/B _0854_/X _0875_/X _0876_/Y] _0878_/C d_lut_sky130_fd_sc_hd__o22a_2
A_1429_ [_1429_/A _1429_/B _1429_/C _1429_/D] _1430_/A d_lut_sky130_fd_sc_hd__or4_2
A_0800_ [_1648_/Q _1647_/Q] _0814_/C d_lut_sky130_fd_sc_hd__or2b_2
A_0731_ [_1691_/Q _0824_/S] _0731_/X d_lut_sky130_fd_sc_hd__or2_2
A_1214_ [_1704_/Q _1658_/Q _1705_/Q _1659_/Q] _1214_/X d_lut_sky130_fd_sc_hd__a22o_2
A_1145_ [_1164_/A _1071_/Y _1078_/Y] _1145_/Y d_lut_sky130_fd_sc_hd__a21oi_2
A_1076_ [_1139_/C _1076_/B] _1076_/X d_lut_sky130_fd_sc_hd__and2_2
A_0929_ [_0933_/S _0932_/A] _0929_/X d_lut_sky130_fd_sc_hd__or2_2
A_1694_ _1694_/D _1714_/CLK NULL ~fanout179/X _1694_/Q NULL ddflop
A_1128_ [_1412_/A _1044_/Y _1127_/Y _1035_/X] _1128_/X d_lut_sky130_fd_sc_hd__a22o_2
A_1059_ [_1101_/B] _1061_/A d_lut_sky130_fd_sc_hd__buf_4
Aoutput14 [_0871_/B] nmatrix_bincap_out_n_2_ d_lut_sky130_fd_sc_hd__buf_4
Aoutput25 [_1165_/X] nmatrix_col_out_n_19_ d_lut_sky130_fd_sc_hd__buf_4
Aoutput47 [_1730_/A] nmatrix_row_out_n_10_ d_lut_sky130_fd_sc_hd__buf_4
Aoutput36 [_1184_/X] nmatrix_col_out_n_29_ d_lut_sky130_fd_sc_hd__buf_4
Aoutput58 [_1726_/A] nmatrix_row_out_n_6_ d_lut_sky130_fd_sc_hd__buf_4
Aoutput69 [_1723_/X] nmatrix_rowon_out_n_2_ d_lut_sky130_fd_sc_hd__buf_4
A_1746_ [_1746_/A] _1746_/X d_lut_sky130_fd_sc_hd__buf_1
A_1677_ _1677_/D _1683_/CLK NULL ~fanout171/X _1677_/Q NULL ddflop
A_1531_ [_1661_/Q _1531_/B _1532_/A _1707_/Q] _1531_/X d_lut_sky130_fd_sc_hd__or4b_2
A_1600_ [_1637_/Q _1602_/B] _1600_/X d_lut_sky130_fd_sc_hd__or2_2
A_1462_ [_0979_/A _0993_/B _1468_/S] _1463_/A d_lut_sky130_fd_sc_hd__mux2_1
A_1393_ [_1429_/D] _1415_/A d_lut_sky130_fd_sc_hd__buf_8
A_1729_ [_1729_/A] _1729_/X d_lut_sky130_fd_sc_hd__buf_1
A_0893_ [_0900_/A _0900_/B] _0895_/A d_lut_sky130_fd_sc_hd__nand2_2
A_0962_ [_1615_/Q _1616_/Q] _0962_/X d_lut_sky130_fd_sc_hd__or2_2
A_1514_ [_1707_/Q _1542_/B] _1514_/X d_lut_sky130_fd_sc_hd__or2_2
A_1445_ [_1445_/A] _1641_/D d_lut_sky130_fd_sc_hd__buf_1
A_1376_ [_1382_/B _1376_/B] _1635_/D d_lut_sky130_fd_sc_hd__nor2_2
A_1230_ [_1662_/Q _1535_/A _1270_/B] _1232_/B d_lut_sky130_fd_sc_hd__and3_2
A_1092_ [_1054_/X _1090_/X _1091_/X] _1092_/Y d_lut_sky130_fd_sc_hd__o21ai_2
A_1161_ [_1093_/X _1101_/X _1160_/X _1097_/X] _1161_/X d_lut_sky130_fd_sc_hd__a22o_2
A_0945_ [_0945_/A _0948_/A _0949_/A _0959_/C] _0945_/X d_lut_sky130_fd_sc_hd__and4_2
A_0876_ [_1644_/Q _1643_/Q] _0876_/Y d_lut_sky130_fd_sc_hd__xnor2_2
A_1428_ [_1428_/A] _1749_/A d_lut_sky130_fd_sc_hd__buf_1
A_1359_ [_1630_/Q _1359_/B] _1360_/B d_lut_sky130_fd_sc_hd__xor2_2
A_0730_ [_1691_/Q _0824_/S _1690_/Q] _0730_/X d_lut_sky130_fd_sc_hd__a21o_2
A_1213_ [_1705_/Q _1659_/Q] _1218_/A d_lut_sky130_fd_sc_hd__or2_2
A_1144_ [_1093_/X _1074_/Y _1075_/Y _1157_/B] _1144_/X d_lut_sky130_fd_sc_hd__a22o_2
A_1075_ [_1164_/A _1095_/A] _1075_/Y d_lut_sky130_fd_sc_hd__nor2_8
A_0928_ [_1614_/Q _0927_/Y _0959_/B] _0932_/A d_lut_sky130_fd_sc_hd__a21o_2
A_0859_ [_0859_/A _0859_/B _0859_/C] _0901_/A d_lut_sky130_fd_sc_hd__and3_2
A_1693_ _1693_/D _1712_/CLK NULL ~fanout179/X _1693_/Q NULL ddflop
A_1127_ [_1036_/X _1087_/B _1095_/X] _1127_/Y d_lut_sky130_fd_sc_hd__o21ai_2
A_1058_ [_1141_/A _1139_/C _1079_/B] _1058_/X d_lut_sky130_fd_sc_hd__or3_4
Aoutput48 [_1731_/A] nmatrix_row_out_n_11_ d_lut_sky130_fd_sc_hd__buf_4
Aoutput26 [_1133_/Y] nmatrix_col_out_n_1_ d_lut_sky130_fd_sc_hd__buf_4
Aoutput15 [_1034_/B] nmatrix_col_out_n_0_ d_lut_sky130_fd_sc_hd__buf_4
Aoutput59 [_1727_/A] nmatrix_row_out_n_7_ d_lut_sky130_fd_sc_hd__buf_4
Aoutput37 [_1134_/X] nmatrix_col_out_n_2_ d_lut_sky130_fd_sc_hd__buf_4
A_1745_ [_1745_/A] _1745_/X d_lut_sky130_fd_sc_hd__buf_1
A_1676_ _1676_/D _1689_/CLK NULL ~fanout171/X _1676_/Q NULL ddflop
A_1530_ [_1683_/Q _1530_/B _1530_/C] _1530_/X d_lut_sky130_fd_sc_hd__and3_2
A_1392_ [_1392_/A _1427_/A _1429_/C _1429_/D] _1721_/A d_lut_sky130_fd_sc_hd__nor4_4
A_1461_ [_1461_/A] _1649_/D d_lut_sky130_fd_sc_hd__buf_1
A_1728_ [_1728_/A] _1728_/X d_lut_sky130_fd_sc_hd__buf_1
A_1659_ _1659_/D _1683_/CLK NULL ~fanout173/X _1659_/Q NULL ddflop
A_0961_ [_0985_/A _0974_/A _0985_/B] _1023_/A d_lut_sky130_fd_sc_hd__nor3_4
A_0892_ [_0857_/X _0856_/X _0926_/C _0926_/B] _0900_/B d_lut_sky130_fd_sc_hd__o22a_2
A_1375_ [_1635_/Q _1377_/B] _1376_/B d_lut_sky130_fd_sc_hd__xnor2_2
A_1513_ [_1522_/B _1550_/A _1707_/Q] _1513_/X d_lut_sky130_fd_sc_hd__or3b_2
A_1444_ [_1641_/Q _1642_/Q _1444_/S] _1445_/A d_lut_sky130_fd_sc_hd__mux2_1
A_1091_ [_1139_/A _1157_/A _1429_/A _1093_/A] _1091_/X d_lut_sky130_fd_sc_hd__a31o_2
A_1160_ [_1061_/A _1046_/A _1051_/X _1036_/X] _1160_/X d_lut_sky130_fd_sc_hd__a31o_2
A_0944_ [_1616_/Q _0966_/B] _0949_/A d_lut_sky130_fd_sc_hd__nand2_2
A_0875_ [_0875_/A _0875_/B _0875_/C _0875_/D] _0875_/X d_lut_sky130_fd_sc_hd__or4_2
A_1358_ [_1628_/Q _1629_/Q] _1359_/B d_lut_sky130_fd_sc_hd__nand2_2
A_1427_ [_1427_/A _1429_/C _1429_/D] _1428_/A d_lut_sky130_fd_sc_hd__or3_2
A_1289_ [_1665_/Q _1711_/Q] _1290_/B d_lut_sky130_fd_sc_hd__nand2_2
A_1212_ [_1531_/B] _1433_/S d_lut_sky130_fd_sc_hd__buf_8
A_1143_ [_1093_/X _1049_/X _1065_/X _1064_/X] _1143_/X d_lut_sky130_fd_sc_hd__a22o_2
A_1074_ [_1164_/A _1095_/A] _1074_/Y d_lut_sky130_fd_sc_hd__nand2_4
A_0927_ [_0857_/X _0856_/X _0926_/X] _0927_/Y d_lut_sky130_fd_sc_hd__o21ai_2
A_0789_ [_1003_/C _0875_/B _0833_/D] _0789_/X d_lut_sky130_fd_sc_hd__or3_2
A_0858_ [_0926_/B _0854_/X _0856_/X _0857_/X] _0859_/C d_lut_sky130_fd_sc_hd__o22a_2
A_1692_ _1692_/D _1712_/CLK NULL ~fanout179/X _1692_/Q NULL ddflop
A_1126_ [_1054_/X _1022_/Y _1183_/B] _1126_/Y d_lut_sky130_fd_sc_hd__a21oi_4
A_1057_ [_1049_/X _1022_/Y _1056_/X _1054_/X] _1057_/Y d_lut_sky130_fd_sc_hd__o22ai_4
Aoutput38 [_1186_/Y] nmatrix_col_out_n_30_ d_lut_sky130_fd_sc_hd__buf_4
Aoutput49 [_1732_/A] nmatrix_row_out_n_12_ d_lut_sky130_fd_sc_hd__buf_4
Aoutput27 [_1167_/X] nmatrix_col_out_n_20_ d_lut_sky130_fd_sc_hd__buf_4
Aoutput16 [_1148_/X] nmatrix_col_out_n_10_ d_lut_sky130_fd_sc_hd__buf_4
A_1744_ [_1744_/A] _1744_/X d_lut_sky130_fd_sc_hd__buf_1
A_1675_ _1675_/D _1689_/CLK NULL ~fanout171/X _1675_/Q NULL ddflop
A_1109_ [_1046_/A _1079_/B _1036_/X] _1109_/X d_lut_sky130_fd_sc_hd__o21a_2
A_1460_ [_0993_/B _1649_/Q _1460_/S] _1461_/A d_lut_sky130_fd_sc_hd__mux2_1
A_1391_ [_1619_/Q _1391_/B] _1429_/D d_lut_sky130_fd_sc_hd__xor2_4
A_1727_ [_1727_/A] _1727_/X d_lut_sky130_fd_sc_hd__buf_1
A_1658_ _1658_/D _1683_/CLK NULL ~fanout173/X _1658_/Q NULL ddflop
A_1589_ [_1589_/A] _1704_/D d_lut_sky130_fd_sc_hd__buf_1
A_0960_ [_0960_/A] _0985_/B d_lut_sky130_fd_sc_hd__buf_4
A_1512_ [_1665_/D _1549_/B] _1512_/X d_lut_sky130_fd_sc_hd__or2_2
A_0891_ [_0909_/B _1646_/Q _1645_/Q] _0926_/C d_lut_sky130_fd_sc_hd__or3b_2
A_1374_ [_1634_/Q _1374_/B] _1377_/B d_lut_sky130_fd_sc_hd__and2_2
A_1443_ [_1443_/A] _1640_/D d_lut_sky130_fd_sc_hd__buf_1
A_1090_ [_1157_/A _1429_/A _1089_/Y _1036_/X] _1090_/X d_lut_sky130_fd_sc_hd__o31a_2
A_0943_ [_0943_/A _0943_/B] _0948_/A d_lut_sky130_fd_sc_hd__or2_2
A_0874_ [_0874_/A _0874_/B] _0878_/B d_lut_sky130_fd_sc_hd__nand2_2
A_1357_ [_1382_/B _1357_/B] _1629_/D d_lut_sky130_fd_sc_hd__nor2_2
A_1288_ [_1711_/Q _1539_/B] _1665_/D d_lut_sky130_fd_sc_hd__xor2_4
A_1426_ [_1049_/X _1415_/A _1397_/B _1427_/A] _1748_/A d_lut_sky130_fd_sc_hd__a211o_2
A_1142_ [_1412_/A _1141_/X _1061_/X] _1142_/X d_lut_sky130_fd_sc_hd__a21o_2
A_1211_ [_1704_/Q _1211_/B] _1658_/D d_lut_sky130_fd_sc_hd__xor2_4
A_1073_ [_1101_/C] _1095_/A d_lut_sky130_fd_sc_hd__buf_8
A_0857_ [_1003_/C _0875_/B _1004_/B] _0857_/X d_lut_sky130_fd_sc_hd__or3_4
A_0926_ [_0943_/A _0926_/B _0926_/C] _0926_/X d_lut_sky130_fd_sc_hd__or3_2
A_1409_ [_1739_/A] _1732_/A d_lut_sky130_fd_sc_hd__inv_2
A_0788_ [_1641_/Q _1642_/Q _1644_/Q _1649_/Q] _0833_/D d_lut_sky130_fd_sc_hd__or4_4
A_1691_ _1691_/D _1712_/CLK NULL ~fanout179/X _1691_/Q NULL ddflop
A_1125_ [_1053_/A _1101_/B _1141_/B _1051_/A _1095_/A] _1183_/B d_lut_sky130_fd_sc_hd__o41a_4
A_1056_ [_1141_/A _1139_/C _1429_/A _1051_/X] _1056_/X d_lut_sky130_fd_sc_hd__o22a_2
Aoutput17 [_1150_/X] nmatrix_col_out_n_11_ d_lut_sky130_fd_sc_hd__buf_4
Aoutput28 [_1169_/X] nmatrix_col_out_n_21_ d_lut_sky130_fd_sc_hd__buf_4
Aoutput39 [_1130_/B] nmatrix_col_out_n_31_ d_lut_sky130_fd_sc_hd__buf_4
A_0909_ [_1645_/Q _0909_/B _1646_/Q] _0909_/X d_lut_sky130_fd_sc_hd__or3b_2
A_1674_ _1674_/D _1689_/CLK NULL ~fanout171/X _1674_/Q NULL ddflop
A_1743_ [_1743_/A] _1743_/X d_lut_sky130_fd_sc_hd__buf_1
A_1039_ [_1429_/A] _1413_/A d_lut_sky130_fd_sc_hd__buf_6
A_1108_ [_1054_/X _1107_/X _1104_/X] _1108_/Y d_lut_sky130_fd_sc_hd__o21ai_2
Aadc_core_digital_193 nmatrix_c0_out_n dzero
A_1390_ [_1390_/A _1390_/B _1390_/C] _1391_/B d_lut_sky130_fd_sc_hd__or3_4
A_1726_ [_1726_/A] _1726_/X d_lut_sky130_fd_sc_hd__buf_1
A_1657_ _1657_/D _1679_/CLK NULL ~fanout172/X _1657_/Q NULL ddflop
A_1588_ [_1704_/Q _1614_/D _1622_/D] _1589_/A d_lut_sky130_fd_sc_hd__mux2_1
A_0890_ [_1614_/Q] _0900_/A d_lut_sky130_fd_sc_hd__inv_2
A_1511_ [_1351_/B _1508_/X _1509_/X _1510_/X] _1680_/D d_lut_sky130_fd_sc_hd__a31o_2
A_1442_ [_1640_/Q _1641_/Q _1444_/S] _1443_/A d_lut_sky130_fd_sc_hd__mux2_1
A_1373_ [_1382_/B _1373_/B] _1634_/D d_lut_sky130_fd_sc_hd__nor2_2
A_1709_ _1709_/D _1384_/B NULL ~fanout177/X _1709_/Q NULL ddflop
A_0942_ [_0959_/C _0948_/C] _0942_/Y d_lut_sky130_fd_sc_hd__nor2_2
A_0873_ [_1613_/Q] _0878_/A d_lut_sky130_fd_sc_hd__inv_2
A_1425_ [_1425_/A] _1747_/A d_lut_sky130_fd_sc_hd__buf_2
A_1356_ [_1628_/Q _1629_/Q] _1357_/B d_lut_sky130_fd_sc_hd__xnor2_2
A_1287_ [_1534_/C _1287_/B _1287_/C] _1539_/B d_lut_sky130_fd_sc_hd__and3_4
A_1210_ [_1534_/C _1210_/B _1210_/C] _1211_/B d_lut_sky130_fd_sc_hd__and3_2
A_1141_ [_1141_/A _1141_/B _1141_/C] _1141_/X d_lut_sky130_fd_sc_hd__or3_2
A_1072_ [_1171_/A _1046_/X _1071_/Y _1035_/X] _1072_/X d_lut_sky130_fd_sc_hd__a22o_2
A_0787_ [_0875_/C _0875_/D] _1004_/A d_lut_sky130_fd_sc_hd__or2_2
A_0925_ [_0919_/Y _0920_/X _0933_/S] _0925_/Y d_lut_sky130_fd_sc_hd__o21ai_2
A_0856_ [_1652_/Q _0993_/B _0875_/D _0856_/D] _0856_/X d_lut_sky130_fd_sc_hd__or4_2
A_1408_ [_1415_/A _1405_/X _1739_/A] _1731_/A d_lut_sky130_fd_sc_hd__a21oi_4
A_1339_ [_1483_/A _1634_/Q _1337_/X _1338_/Y _1632_/Q] _1339_/X d_lut_sky130_fd_sc_hd__a221o_2
A_1690_ _1690_/D _1712_/CLK ~fanout179/X NULL _1690_/Q NULL ddflop
A_1124_ [_1046_/X _1022_/Y _1123_/X _1054_/X] _1124_/Y d_lut_sky130_fd_sc_hd__o22ai_4
A_1055_ [_1049_/X _1022_/Y _1052_/X _1054_/X] _1055_/Y d_lut_sky130_fd_sc_hd__o22ai_4
Aoutput18 [_1152_/X] nmatrix_col_out_n_12_ d_lut_sky130_fd_sc_hd__buf_4
Aoutput29 [_1170_/Y] nmatrix_col_out_n_22_ d_lut_sky130_fd_sc_hd__buf_4
A_0839_ [_1640_/Q _0839_/B] _0841_/B d_lut_sky130_fd_sc_hd__nor2_2
A_0908_ [_0982_/A _0837_/B _0854_/X _0926_/B] _0931_/B d_lut_sky130_fd_sc_hd__o22a_2
A_1673_ _1673_/D _1686_/CLK NULL ~fanout175/X _1673_/Q NULL ddflop
A_1742_ [_1742_/A] _1742_/X d_lut_sky130_fd_sc_hd__buf_1
Aadc_core_digital_194 nmatrix_row_out_n_0_ dzero
A_1107_ [_1157_/A _1046_/A _1051_/X _1093_/A] _1107_/X d_lut_sky130_fd_sc_hd__o22a_2