* XSpice netlist created from SPICE and liberty sources by spi2xspice.py
*SPICE netlist created from verilog structural netlist module adc_row_col_decoder by vlog2Spice (qflow)
.subckt adc_row_col_decoder a_VPWR a_VGND a_bincap_out_n_0_ a_bincap_out_n_1_ a_bincap_out_n_2_ a_c0n_out_n a_c0p_out_n a_col_out_n_0_ a_col_out_n_1_ a_col_out_n_2_ a_col_out_n_3_ a_col_out_n_4_ a_col_out_n_5_ a_col_out_n_6_ a_col_out_n_7_ a_col_out_n_8_ a_col_out_n_9_ a_col_out_n_10_ a_col_out_n_11_ a_col_out_n_12_ a_col_out_n_13_ a_col_out_n_14_ a_col_out_n_15_ a_col_out_n_16_ a_col_out_n_17_ a_col_out_n_18_ a_col_out_n_19_ a_col_out_n_20_ a_col_out_n_21_ a_col_out_n_22_ a_col_out_n_23_ a_col_out_n_24_ a_col_out_n_25_ a_col_out_n_26_ a_col_out_n_27_ a_col_out_n_28_ a_col_out_n_29_ a_col_out_n_30_ a_col_out_n_31_ a_data_in_0_ a_data_in_1_ a_data_in_2_ a_data_in_3_ a_data_in_4_ a_data_in_5_ a_data_in_6_ a_data_in_7_ a_data_in_8_ a_data_in_9_ a_data_in_10_ a_data_in_11_ a_row_out_n_0_ a_row_out_n_1_ a_row_out_n_2_ a_row_out_n_3_ a_row_out_n_4_ a_row_out_n_5_ a_row_out_n_6_ a_row_out_n_7_ a_row_out_n_8_ a_row_out_n_9_ a_row_out_n_10_ a_row_out_n_11_ a_row_out_n_12_ a_row_out_n_13_ a_row_out_n_14_ a_row_out_n_15_ a_rowon_out_n_0_ a_rowon_out_n_1_ a_rowon_out_n_2_ a_rowon_out_n_3_ a_rowon_out_n_4_ a_rowon_out_n_5_ a_rowon_out_n_6_ a_rowon_out_n_7_ a_rowon_out_n_8_ a_rowon_out_n_9_ a_rowon_out_n_10_ a_rowon_out_n_11_ a_rowon_out_n_12_ a_rowon_out_n_13_ a_rowon_out_n_14_ a_rowon_out_n_15_ a_rowoff_out_n_0_ a_rowoff_out_n_1_ a_rowoff_out_n_2_ a_rowoff_out_n_3_ a_rowoff_out_n_4_ a_rowoff_out_n_5_ a_rowoff_out_n_6_ a_rowoff_out_n_7_ a_rowoff_out_n_8_ a_rowoff_out_n_9_ a_rowoff_out_n_10_ a_rowoff_out_n_11_ a_rowoff_out_n_12_ a_rowoff_out_n_13_ a_rowoff_out_n_14_ a_rowoff_out_n_15_ a_col_out_0_ a_col_out_1_ a_col_out_2_ a_col_out_3_ a_col_out_4_ a_col_out_5_ a_col_out_6_ a_col_out_7_ a_col_out_8_ a_col_out_9_ a_col_out_10_ a_col_out_11_ a_col_out_12_ a_col_out_13_ a_col_out_14_ a_col_out_15_ a_col_out_16_ a_col_out_17_ a_col_out_18_ a_col_out_19_ a_col_out_20_ a_col_out_21_ a_col_out_22_ a_col_out_23_ a_col_out_24_ a_col_out_25_ a_col_out_26_ a_col_out_27_ a_col_out_28_ a_col_out_29_ a_col_out_30_ a_col_out_31_ a_row_mode a_col_mode
A_342_ [data_in_9_ data_in_8_ data_in_10_ data_in_11_] _000_ d_lut_sky130_fd_sc_hd__and4_2
A_343_ [_000_] _001_ d_lut_sky130_fd_sc_hd__buf_2
A_344_ [data_in_8_] _002_ d_lut_sky130_fd_sc_hd__buf_6
A_345_ [data_in_10_] _003_ d_lut_sky130_fd_sc_hd__buf_4
A_346_ [data_in_9_ _002_ _003_ data_in_11_] _004_ d_lut_sky130_fd_sc_hd__nor4_4
A_347_ [row_mode] _005_ d_lut_sky130_fd_sc_hd__inv_2
A_348_ [_001_ _004_ _005_] _006_ d_lut_sky130_fd_sc_hd__mux2_4
A_349_ [_006_] _007_ d_lut_sky130_fd_sc_hd__buf_6
A_350_ [_007_] row_out_n_0_ d_lut_sky130_fd_sc_hd__inv_6
A_351_ [col_mode] _008_ d_lut_sky130_fd_sc_hd__buf_1
A_352_ [_008_] _009_ d_lut_sky130_fd_sc_hd__buf_1
A_353_ [_009_] _010_ d_lut_sky130_fd_sc_hd__buf_1
A_354_ [row_mode] _011_ d_lut_sky130_fd_sc_hd__buf_2
A_355_ [_002_ _011_] _012_ d_lut_sky130_fd_sc_hd__nand2b_2
A_356_ [_002_] _013_ d_lut_sky130_fd_sc_hd__buf_2
A_357_ [_011_ _013_] _014_ d_lut_sky130_fd_sc_hd__nand2b_2
A_358_ [data_in_7_] _015_ d_lut_sky130_fd_sc_hd__buf_1
A_359_ [data_in_3_] _016_ d_lut_sky130_fd_sc_hd__buf_1
A_360_ [data_in_4_] _017_ d_lut_sky130_fd_sc_hd__buf_1
A_361_ [data_in_5_] _018_ d_lut_sky130_fd_sc_hd__buf_2
A_362_ [_016_ _017_ _018_ data_in_6_] _019_ d_lut_sky130_fd_sc_hd__and4_2
A_363_ [_015_ _019_] _020_ d_lut_sky130_fd_sc_hd__and2_2
A_364_ [_011_ _004_] _021_ d_lut_sky130_fd_sc_hd__nor2_2
A_365_ [_021_] _022_ d_lut_sky130_fd_sc_hd__buf_6
A_366_ [col_mode row_mode] _023_ d_lut_sky130_fd_sc_hd__and2b_2
A_367_ [col_mode row_mode] _024_ d_lut_sky130_fd_sc_hd__nor2_2
A_368_ [_001_ _023_ _024_ _004_] _025_ d_lut_sky130_fd_sc_hd__a22o_2
A_369_ [_025_] _026_ d_lut_sky130_fd_sc_hd__buf_2
A_370_ [_022_ _026_ _020_] _027_ d_lut_sky130_fd_sc_hd__o21ai_2
A_371_ [data_in_3_ data_in_4_ _018_] _028_ d_lut_sky130_fd_sc_hd__or3_2
A_372_ [_022_ _025_ _028_] _029_ d_lut_sky130_fd_sc_hd__or3_4
A_373_ [data_in_7_ data_in_6_] _030_ d_lut_sky130_fd_sc_hd__or2_2
A_374_ [_009_ _027_ _029_ _030_] _031_ d_lut_sky130_fd_sc_hd__o2bb2a_2
A_375_ [_010_ _012_ _014_ _020_ _031_] col_out_n_0_ d_lut_sky130_fd_sc_hd__o221ai_2
A_376_ [data_in_7_] _032_ d_lut_sky130_fd_sc_hd__buf_1
A_377_ [data_in_6_] _033_ d_lut_sky130_fd_sc_hd__buf_1
A_378_ [_032_ _033_] _034_ d_lut_sky130_fd_sc_hd__nor2_2
A_379_ [_011_ _002_] _035_ d_lut_sky130_fd_sc_hd__xor2_2
A_380_ [_008_ _035_] _036_ d_lut_sky130_fd_sc_hd__nor2_2
A_381_ [_036_] _037_ d_lut_sky130_fd_sc_hd__buf_1
A_382_ [_018_] _038_ d_lut_sky130_fd_sc_hd__buf_2
A_383_ [data_in_3_ _017_] _039_ d_lut_sky130_fd_sc_hd__or2_2
A_384_ [_039_] _040_ d_lut_sky130_fd_sc_hd__buf_1
A_385_ [_038_ _040_] _041_ d_lut_sky130_fd_sc_hd__nor2_2
A_386_ [row_mode data_in_3_] _042_ d_lut_sky130_fd_sc_hd__nor2b_2
A_387_ [data_in_4_ _018_] _043_ d_lut_sky130_fd_sc_hd__or2_2
A_388_ [_042_ _043_] _044_ d_lut_sky130_fd_sc_hd__nor2_2
A_389_ [_041_ _044_ row_out_n_0_] _045_ d_lut_sky130_fd_sc_hd__mux2_4
A_390_ [_038_] _046_ d_lut_sky130_fd_sc_hd__buf_1
A_391_ [_046_] _047_ d_lut_sky130_fd_sc_hd__buf_1
A_392_ [data_in_7_ data_in_6_] _048_ d_lut_sky130_fd_sc_hd__and2_2
A_393_ [_048_] _049_ d_lut_sky130_fd_sc_hd__buf_1
A_394_ [_016_ _011_] _050_ d_lut_sky130_fd_sc_hd__nand2b_2
A_395_ [_017_ _050_] _051_ d_lut_sky130_fd_sc_hd__and2_2
A_396_ [col_mode] _052_ d_lut_sky130_fd_sc_hd__inv_2
A_397_ [_052_] _053_ d_lut_sky130_fd_sc_hd__buf_1
A_398_ [_053_ _035_] _054_ d_lut_sky130_fd_sc_hd__nand2_2
A_399_ [_047_ _049_ _051_ _054_] _055_ d_lut_sky130_fd_sc_hd__a31oi_2
A_400_ [_046_ _048_] _056_ d_lut_sky130_fd_sc_hd__nand2_2
A_401_ [_017_] _057_ d_lut_sky130_fd_sc_hd__buf_1
A_402_ [_057_] _058_ d_lut_sky130_fd_sc_hd__buf_1
A_403_ [_001_ _023_ _024_ _004_] _059_ d_lut_sky130_fd_sc_hd__a22oi_2
A_404_ [_058_ _059_ _042_ row_out_n_0_] _060_ d_lut_sky130_fd_sc_hd__a22oi_2
A_405_ [_056_ _060_ _009_] _061_ d_lut_sky130_fd_sc_hd__o21a_2
A_406_ [_034_ _037_ _045_ _055_ _061_] col_out_n_1_ d_lut_sky130_fd_sc_hd__a311o_2
A_407_ [_035_] _062_ d_lut_sky130_fd_sc_hd__buf_2
A_408_ [data_in_7_ _018_ data_in_6_] _063_ d_lut_sky130_fd_sc_hd__or3_2
A_409_ [_063_] _064_ d_lut_sky130_fd_sc_hd__buf_1
A_410_ [_057_ _050_ _064_] _065_ d_lut_sky130_fd_sc_hd__a21oi_2
A_411_ [data_in_9_ _002_ _003_ data_in_11_] _066_ d_lut_sky130_fd_sc_hd__nand4_2
A_412_ [col_mode row_mode] _067_ d_lut_sky130_fd_sc_hd__nand2_2
A_413_ [row_mode col_mode] _068_ d_lut_sky130_fd_sc_hd__or2b_2
A_414_ [data_in_9_ _002_ _003_ data_in_11_] _069_ d_lut_sky130_fd_sc_hd__or4_4
A_415_ [_066_ _067_ _068_ _069_] _070_ d_lut_sky130_fd_sc_hd__o22a_2
A_416_ [_016_ _017_] _071_ d_lut_sky130_fd_sc_hd__and2_2
A_417_ [_071_ _064_] _072_ d_lut_sky130_fd_sc_hd__nor2_2
A_418_ [_007_ _065_ _070_ _072_] _073_ d_lut_sky130_fd_sc_hd__o22ai_2
A_419_ [_058_ _064_ _026_] _074_ d_lut_sky130_fd_sc_hd__o21a_2
A_420_ [_062_ _073_ _074_] _075_ d_lut_sky130_fd_sc_hd__or3_2
A_421_ [_053_] _076_ d_lut_sky130_fd_sc_hd__buf_1
A_422_ [_017_ _042_] _077_ d_lut_sky130_fd_sc_hd__or2_2
A_423_ [_011_ _002_] _078_ d_lut_sky130_fd_sc_hd__xnor2_2
A_424_ [_078_] _079_ d_lut_sky130_fd_sc_hd__buf_1
A_425_ [_046_ _048_ _077_ _079_] _080_ d_lut_sky130_fd_sc_hd__a31o_2
A_426_ [_076_ _080_] _081_ d_lut_sky130_fd_sc_hd__and2_2
A_427_ [_008_] _082_ d_lut_sky130_fd_sc_hd__buf_1
A_428_ [row_mode data_in_4_ data_in_3_] _083_ d_lut_sky130_fd_sc_hd__and3b_2
A_429_ [_069_ _083_] _084_ d_lut_sky130_fd_sc_hd__and2_2
A_430_ [_046_ _084_] _085_ d_lut_sky130_fd_sc_hd__or2_2
A_431_ [_082_ _049_ _085_] _086_ d_lut_sky130_fd_sc_hd__and3_2
A_432_ [_075_ _081_ _086_] col_out_n_2_ d_lut_sky130_fd_sc_hd__a21oi_4
A_433_ [_032_ _033_] _087_ d_lut_sky130_fd_sc_hd__nand2_2
A_434_ [_044_ _087_] _088_ d_lut_sky130_fd_sc_hd__or2_2
A_435_ [_043_ _049_ _070_] _089_ d_lut_sky130_fd_sc_hd__a21oi_2
A_436_ [_005_] _090_ d_lut_sky130_fd_sc_hd__buf_1
A_437_ [_090_ _026_ _064_ _012_] _091_ d_lut_sky130_fd_sc_hd__o31a_2
A_438_ [_071_ _064_] _092_ d_lut_sky130_fd_sc_hd__or2_2
A_439_ [_069_ _025_ _064_ _092_ _014_] _093_ d_lut_sky130_fd_sc_hd__o311a_2
A_440_ [_002_ _011_] _094_ d_lut_sky130_fd_sc_hd__and2b_2
A_441_ [_040_ _094_ _014_] _095_ d_lut_sky130_fd_sc_hd__a21bo_2
A_442_ [_046_ _048_ _095_ _008_] _096_ d_lut_sky130_fd_sc_hd__a31o_2
A_443_ [_091_ _093_ _096_] _097_ d_lut_sky130_fd_sc_hd__a21oi_2
A_444_ [_010_ row_out_n_0_ _088_ _089_ _097_] col_out_n_3_ d_lut_sky130_fd_sc_hd__a311o_2
A_445_ [_008_] _098_ d_lut_sky130_fd_sc_hd__buf_1
A_446_ [_098_] _099_ d_lut_sky130_fd_sc_hd__buf_1
A_447_ [_018_ _083_] _100_ d_lut_sky130_fd_sc_hd__and2_2
A_448_ [_032_ row_out_n_0_ _100_ _048_] _101_ d_lut_sky130_fd_sc_hd__a31o_2
A_449_ [_079_] _102_ d_lut_sky130_fd_sc_hd__buf_1
A_450_ [_030_ _040_ _008_] _103_ d_lut_sky130_fd_sc_hd__o21a_2
A_451_ [_016_ _017_ _011_] _104_ d_lut_sky130_fd_sc_hd__or3b_2
A_452_ [_038_ _104_ _030_] _105_ d_lut_sky130_fd_sc_hd__a21o_2
A_453_ [row_out_n_0_ _103_ _105_] _106_ d_lut_sky130_fd_sc_hd__o21ai_2
A_454_ [_026_ _064_] _107_ d_lut_sky130_fd_sc_hd__nand2_2
A_455_ [_102_ _106_ _107_] _108_ d_lut_sky130_fd_sc_hd__and3_2
A_456_ [_047_ _083_ _049_] _109_ d_lut_sky130_fd_sc_hd__o21ai_2
A_457_ [_062_ _109_ _082_] _110_ d_lut_sky130_fd_sc_hd__a21o_2
A_458_ [_099_ _101_ _108_ _110_] col_out_n_4_ d_lut_sky130_fd_sc_hd__o2bb2a_2
A_459_ [_009_] _111_ d_lut_sky130_fd_sc_hd__buf_1
A_460_ [_015_] _112_ d_lut_sky130_fd_sc_hd__buf_1
A_461_ [_069_ _042_ _017_] _113_ d_lut_sky130_fd_sc_hd__a21o_2
A_462_ [_033_] _114_ d_lut_sky130_fd_sc_hd__buf_1
A_463_ [_046_ _113_ _114_] _115_ d_lut_sky130_fd_sc_hd__a21o_2
A_464_ [_112_ _115_] _116_ d_lut_sky130_fd_sc_hd__nand2_2
A_465_ [_016_ _026_ _113_] _117_ d_lut_sky130_fd_sc_hd__a21o_2
A_466_ [_034_ _036_] _118_ d_lut_sky130_fd_sc_hd__nand2_2
A_467_ [_047_ _117_ _118_] _119_ d_lut_sky130_fd_sc_hd__a21oi_2
A_468_ [_057_ _050_ _038_] _120_ d_lut_sky130_fd_sc_hd__a21o_2
A_469_ [_049_ _120_ _054_] _121_ d_lut_sky130_fd_sc_hd__a21oi_2
A_470_ [_111_ _116_ _119_ _121_] col_out_n_5_ d_lut_sky130_fd_sc_hd__a211o_2
A_471_ [_044_ _087_] _122_ d_lut_sky130_fd_sc_hd__nor2_2
A_472_ [_032_] _123_ d_lut_sky130_fd_sc_hd__buf_1
A_473_ [_011_] _124_ d_lut_sky130_fd_sc_hd__buf_2
A_474_ [_124_ _066_] rowoff_out_n_0_ d_lut_sky130_fd_sc_hd__nand2_2
A_475_ [_018_ data_in_6_] _125_ d_lut_sky130_fd_sc_hd__or2_2
A_476_ [_125_] _126_ d_lut_sky130_fd_sc_hd__buf_1
A_477_ [rowoff_out_n_0_ _071_ _126_] _127_ d_lut_sky130_fd_sc_hd__a21o_2
A_478_ [_123_ _070_ _127_] _128_ d_lut_sky130_fd_sc_hd__and3_2
A_479_ [_123_ _007_ _126_ _053_] _129_ d_lut_sky130_fd_sc_hd__a31o_2
A_480_ [_001_ _050_] _130_ d_lut_sky130_fd_sc_hd__or2_2
A_481_ [_058_ _047_ _130_ _118_] _131_ d_lut_sky130_fd_sc_hd__a31o_2
A_482_ [_054_ _122_ _128_ _129_ _131_] col_out_n_6_ d_lut_sky130_fd_sc_hd__o221ai_2
A_483_ [_007_ _044_ _070_ _033_] _132_ d_lut_sky130_fd_sc_hd__a2bb2o_4
A_484_ [_032_ _025_] _133_ d_lut_sky130_fd_sc_hd__nand2_2
A_485_ [_015_ _132_ _133_ _041_] _134_ d_lut_sky130_fd_sc_hd__o2bb2a_2
A_486_ [_058_ _126_ _007_ _112_] _135_ d_lut_sky130_fd_sc_hd__o211ai_2
A_487_ [_033_] _136_ d_lut_sky130_fd_sc_hd__buf_1
A_488_ [_002_] _137_ d_lut_sky130_fd_sc_hd__inv_2
A_489_ [_016_ _057_ _018_] _138_ d_lut_sky130_fd_sc_hd__and3_2
A_490_ [_114_ _138_ _137_] _139_ d_lut_sky130_fd_sc_hd__o21a_2
A_491_ [_123_] _140_ d_lut_sky130_fd_sc_hd__buf_1
A_492_ [_090_] _141_ d_lut_sky130_fd_sc_hd__buf_1
A_493_ [_136_ _137_ _139_ _140_ _141_] _142_ d_lut_sky130_fd_sc_hd__o221ai_2
A_494_ [_028_ _048_] _143_ d_lut_sky130_fd_sc_hd__and2_2
A_495_ [_124_] _144_ d_lut_sky130_fd_sc_hd__buf_2
A_496_ [_013_] _145_ d_lut_sky130_fd_sc_hd__buf_1
A_497_ [_124_ _145_ _030_ _008_] _146_ d_lut_sky130_fd_sc_hd__a31o_2
A_498_ [_144_ _001_ _138_ _146_] _147_ d_lut_sky130_fd_sc_hd__a31o_2
A_499_ [_094_ _143_ _147_] _148_ d_lut_sky130_fd_sc_hd__a21oi_2
A_500_ [_111_ _134_ _135_ _142_ _148_] col_out_n_7_ d_lut_sky130_fd_sc_hd__a32o_2
A_501_ [_136_ _029_] _149_ d_lut_sky130_fd_sc_hd__and2_2
A_502_ [_014_ _138_ _012_] _150_ d_lut_sky130_fd_sc_hd__o21a_2
A_503_ [_136_ _150_ _112_] _151_ d_lut_sky130_fd_sc_hd__o21a_2
A_504_ [_098_ _151_] _152_ d_lut_sky130_fd_sc_hd__nor2_2
A_505_ [_022_ _019_ _140_] _153_ d_lut_sky130_fd_sc_hd__a21oi_2
A_506_ [_037_ _149_ _152_ _153_] col_out_n_8_ d_lut_sky130_fd_sc_hd__o2bb2a_4
A_507_ [_033_ _028_ _032_] _154_ d_lut_sky130_fd_sc_hd__a21o_2
A_508_ [_042_ _043_ data_in_6_] _155_ d_lut_sky130_fd_sc_hd__o21a_2
A_509_ [data_in_7_ _043_] _156_ d_lut_sky130_fd_sc_hd__or2_2
A_510_ [_032_ _155_ _156_ row_out_n_0_ _059_] _157_ d_lut_sky130_fd_sc_hd__o221a_4
A_511_ [_026_ _154_ _157_ _062_] _158_ d_lut_sky130_fd_sc_hd__a211o_4
A_512_ [_058_ _046_ _050_ _114_] _159_ d_lut_sky130_fd_sc_hd__a31o_2
A_513_ [_112_ _159_ _102_] _160_ d_lut_sky130_fd_sc_hd__a21oi_2
A_514_ [_098_ _160_] _161_ d_lut_sky130_fd_sc_hd__nor2_2
A_515_ [data_in_5_ data_in_6_] _162_ d_lut_sky130_fd_sc_hd__and2_2
A_516_ [_162_] _163_ d_lut_sky130_fd_sc_hd__buf_1
A_517_ [_163_ _113_ _032_] _164_ d_lut_sky130_fd_sc_hd__a21o_2
A_518_ [_158_ _161_ _164_ _111_] col_out_n_9_ d_lut_sky130_fd_sc_hd__a22oi_4
A_519_ [_136_ _085_ _140_] _165_ d_lut_sky130_fd_sc_hd__a21oi_2
A_520_ [_016_ _013_ _057_] _166_ d_lut_sky130_fd_sc_hd__a21o_2
A_521_ [_038_ _166_ _079_ _114_] _167_ d_lut_sky130_fd_sc_hd__a211o_2
A_522_ [_001_ _050_ _057_] _168_ d_lut_sky130_fd_sc_hd__o21a_2
A_523_ [_038_ _168_ _079_ _114_] _169_ d_lut_sky130_fd_sc_hd__o211a_2
A_524_ [_112_ _167_ _169_ _009_] _170_ d_lut_sky130_fd_sc_hd__a211o_2
A_525_ [_099_ _165_ _170_] col_out_n_10_ d_lut_sky130_fd_sc_hd__a21bo_2
A_526_ [_090_ _069_ _052_] _171_ d_lut_sky130_fd_sc_hd__a21o_2
A_527_ [rowoff_out_n_0_ _171_ _071_ _046_] _172_ d_lut_sky130_fd_sc_hd__a31o_2
A_528_ [_136_ _102_ _172_] _173_ d_lut_sky130_fd_sc_hd__and3_2
A_529_ [_040_ _012_ _079_ _046_] _174_ d_lut_sky130_fd_sc_hd__o22a_2
A_530_ [_136_ _174_ _140_] _175_ d_lut_sky130_fd_sc_hd__o21ai_2
A_531_ [_076_ _175_] _176_ d_lut_sky130_fd_sc_hd__nand2_2
A_532_ [_076_ _157_ _173_ _176_] col_out_n_11_ d_lut_sky130_fd_sc_hd__o22ai_2
A_533_ [_022_ _138_ _030_] _177_ d_lut_sky130_fd_sc_hd__a21oi_2
A_534_ [_071_ _014_ _012_] _178_ d_lut_sky130_fd_sc_hd__o21a_2
A_535_ [_126_ _178_ _015_] _179_ d_lut_sky130_fd_sc_hd__o21a_2
A_536_ [_022_ _025_ _040_ _163_ _079_] _180_ d_lut_sky130_fd_sc_hd__o311a_2
A_537_ [_008_ _179_ _180_] _181_ d_lut_sky130_fd_sc_hd__or3_2
A_538_ [_099_ _177_ _181_] col_out_n_12_ d_lut_sky130_fd_sc_hd__a21bo_4
A_539_ [_051_ _126_ _123_ _062_] _182_ d_lut_sky130_fd_sc_hd__o211a_2
A_540_ [_040_ _163_ _032_ _059_] _183_ d_lut_sky130_fd_sc_hd__a211o_2
A_541_ [_026_ _164_ _183_ _102_] _184_ d_lut_sky130_fd_sc_hd__o211a_2
A_542_ [_082_ _034_] _185_ d_lut_sky130_fd_sc_hd__nand2_2
A_543_ [_060_ _047_] _186_ d_lut_sky130_fd_sc_hd__and2b_2
A_544_ [_082_ _182_ _184_ _185_ _186_] col_out_n_13_ d_lut_sky130_fd_sc_hd__o32ai_4
A_545_ [_032_ _019_ _066_ _124_] _187_ d_lut_sky130_fd_sc_hd__o211a_2
A_546_ [_017_ _163_ _002_ data_in_7_] _188_ d_lut_sky130_fd_sc_hd__a211o_2
A_547_ [data_in_3_ col_mode] _189_ d_lut_sky130_fd_sc_hd__or2b_2
A_548_ [_017_ _163_ _189_ data_in_7_] _190_ d_lut_sky130_fd_sc_hd__a31o_2
A_549_ [_022_ _188_ _190_ _007_ _094_] _191_ d_lut_sky130_fd_sc_hd__a221o_2
A_550_ [_187_ _191_] _192_ d_lut_sky130_fd_sc_hd__or2_2
A_551_ [_033_ _042_ _043_ _015_] _193_ d_lut_sky130_fd_sc_hd__o31a_2
A_552_ [_102_ _193_] _194_ d_lut_sky130_fd_sc_hd__or2_2
A_553_ [_064_ _084_ _098_] _195_ d_lut_sky130_fd_sc_hd__o21a_2
A_554_ [_076_ _192_ _194_ _195_] col_out_n_14_ d_lut_sky130_fd_sc_hd__a31oi_4
A_555_ [_022_ _026_ _019_ _102_] _196_ d_lut_sky130_fd_sc_hd__o211a_2
A_556_ [_040_ _012_ _126_ _123_] _197_ d_lut_sky130_fd_sc_hd__o31a_2
A_557_ [_053_ _064_ _113_] _198_ d_lut_sky130_fd_sc_hd__or3_2
A_558_ [_082_ _196_ _197_ _198_] col_out_15_ d_lut_sky130_fd_sc_hd__o31a_2
A_559_ [col_out_15_] col_out_n_15_ d_lut_sky130_fd_sc_hd__inv_2
A_560_ [_030_ _029_] _199_ d_lut_sky130_fd_sc_hd__or2_2
A_561_ [_114_ _029_ _062_] _200_ d_lut_sky130_fd_sc_hd__or3_4
A_562_ [_141_ _145_ _019_ _015_] _201_ d_lut_sky130_fd_sc_hd__a31o_2
A_563_ [_076_ _201_] _202_ d_lut_sky130_fd_sc_hd__and2_2
A_564_ [_111_ _199_ _200_ _202_] col_out_n_16_ d_lut_sky130_fd_sc_hd__a22oi_4
A_565_ [_041_ _133_ _132_ _015_] _203_ d_lut_sky130_fd_sc_hd__a2bb2o_4
A_566_ [_058_ _163_ _050_ _123_] _204_ d_lut_sky130_fd_sc_hd__a31o_2
A_567_ [_008_ _079_] _205_ d_lut_sky130_fd_sc_hd__nor2_2
A_568_ [_009_ _073_] _206_ d_lut_sky130_fd_sc_hd__and2_2
A_569_ [_037_ _203_ _204_ _205_ _206_] col_out_n_17_ d_lut_sky130_fd_sc_hd__a221oi_4
A_570_ [_005_ _069_ _016_] _207_ d_lut_sky130_fd_sc_hd__a21o_2
A_571_ [_057_ _207_] _208_ d_lut_sky130_fd_sc_hd__and2_2
A_572_ [_126_ _208_ _112_ _059_] _209_ d_lut_sky130_fd_sc_hd__o211ai_2
A_573_ [_163_ _077_ _054_ _015_] _210_ d_lut_sky130_fd_sc_hd__a211o_2
A_574_ [_082_ _106_ _210_] _211_ d_lut_sky130_fd_sc_hd__a21bo_2
A_575_ [_037_ _135_ _209_ _211_] col_out_n_18_ d_lut_sky130_fd_sc_hd__a31o_2
A_576_ [_053_ _078_] _212_ d_lut_sky130_fd_sc_hd__nand2_2
A_577_ [_058_ _047_ _207_] _213_ d_lut_sky130_fd_sc_hd__and3_2
A_578_ [_163_ _104_ _054_ _140_] _214_ d_lut_sky130_fd_sc_hd__a211o_2
A_579_ [_212_ _128_ _185_ _213_ _214_] col_out_n_19_ d_lut_sky130_fd_sc_hd__o221ai_2
A_580_ [data_in_6_ _021_ _025_ _039_] _215_ d_lut_sky130_fd_sc_hd__or4_4
A_581_ [_015_ _126_ _215_] _216_ d_lut_sky130_fd_sc_hd__and3_4
A_582_ [_038_ _083_ _114_] _217_ d_lut_sky130_fd_sc_hd__o21a_2
A_583_ [_123_ _217_ _062_] _218_ d_lut_sky130_fd_sc_hd__o21a_2
A_584_ [_053_ _112_] _219_ d_lut_sky130_fd_sc_hd__or2_2
A_585_ [_082_ _216_ _218_ _219_ _149_] col_out_n_20_ d_lut_sky130_fd_sc_hd__o32ai_4
A_586_ [_046_ _040_ _136_] _220_ d_lut_sky130_fd_sc_hd__a21oi_2
A_587_ [_114_ _120_ _123_] _221_ d_lut_sky130_fd_sc_hd__a21oi_2
A_588_ [_133_ _220_ _221_ _102_] _222_ d_lut_sky130_fd_sc_hd__o22a_2
A_589_ [_098_ _136_] _223_ d_lut_sky130_fd_sc_hd__nand2_2
A_590_ [_047_ _208_] _224_ d_lut_sky130_fd_sc_hd__nor2_2
A_591_ [_057_ _042_ _018_] _225_ d_lut_sky130_fd_sc_hd__o21a_2
A_592_ [_009_ _136_ _225_ _059_ _140_] _226_ d_lut_sky130_fd_sc_hd__o311ai_2
A_593_ [_010_ _222_ _223_ _224_ _226_] col_out_n_21_ d_lut_sky130_fd_sc_hd__o221a_2
A_594_ [_058_ _038_ _207_ _114_] _227_ d_lut_sky130_fd_sc_hd__a31o_2
A_595_ [_057_ _018_ _033_] _228_ d_lut_sky130_fd_sc_hd__a21o_2
A_596_ [_015_ _007_ _228_ _212_] _229_ d_lut_sky130_fd_sc_hd__a31o_2
A_597_ [_112_ _059_ _227_ _229_] _230_ d_lut_sky130_fd_sc_hd__a31o_2
A_598_ [_016_ data_in_6_ _011_] _231_ d_lut_sky130_fd_sc_hd__a21o_2
A_599_ [_124_ _013_] _232_ d_lut_sky130_fd_sc_hd__nor2_2
A_600_ [_033_ _043_ _231_ _013_ _232_] _233_ d_lut_sky130_fd_sc_hd__a221o_2
A_601_ [_008_ _038_ _033_] _234_ d_lut_sky130_fd_sc_hd__and3_2
A_602_ [_022_ _040_] _235_ d_lut_sky130_fd_sc_hd__or2_2
A_603_ [_053_ _233_ _234_ _235_ _123_] _236_ d_lut_sky130_fd_sc_hd__a221o_2
A_604_ [_230_ _236_] col_out_n_22_ d_lut_sky130_fd_sc_hd__nand2_2
A_605_ [_123_ _026_ _138_ _101_ _062_] _237_ d_lut_sky130_fd_sc_hd__a311oi_2
A_606_ [_028_ _012_ _079_ _114_] _238_ d_lut_sky130_fd_sc_hd__o22a_2
A_607_ [_112_ _238_] _239_ d_lut_sky130_fd_sc_hd__nor2_2
A_608_ [_058_ _163_ _207_ _140_] _240_ d_lut_sky130_fd_sc_hd__a31o_2
A_609_ [_111_ _240_] _241_ d_lut_sky130_fd_sc_hd__nand2_2
A_610_ [_010_ _237_ _239_ _241_] col_out_n_23_ d_lut_sky130_fd_sc_hd__o31a_2
A_611_ [_029_ _049_] _242_ d_lut_sky130_fd_sc_hd__nand2_2
A_612_ [_126_ _235_ _112_] _243_ d_lut_sky130_fd_sc_hd__o21ai_2
A_613_ [_100_ _205_ _034_] _244_ d_lut_sky130_fd_sc_hd__and3b_2
A_614_ [_037_ _242_ _243_ _098_ _244_] col_out_n_24_ d_lut_sky130_fd_sc_hd__a221o_2
A_615_ [_001_ _023_ _024_ _004_ _043_] _245_ d_lut_sky130_fd_sc_hd__a221o_2
A_616_ [_143_ _245_ _141_ _137_] _246_ d_lut_sky130_fd_sc_hd__a211o_2
A_617_ [_058_ _038_ _050_ _030_] _247_ d_lut_sky130_fd_sc_hd__a31o_2
A_618_ [_144_ _145_ _143_ _247_ _102_] _248_ d_lut_sky130_fd_sc_hd__o32a_2
A_619_ [_246_ _248_ _010_] _249_ d_lut_sky130_fd_sc_hd__a21oi_2
A_620_ [_099_ _209_ _249_] col_out_n_25_ d_lut_sky130_fd_sc_hd__a21o_2
A_621_ [_030_ _225_ _035_ _053_] _250_ d_lut_sky130_fd_sc_hd__o211a_2
A_622_ [_053_ _047_ _049_ _250_] _251_ d_lut_sky130_fd_sc_hd__a31o_2
A_623_ [_057_ _189_] _252_ d_lut_sky130_fd_sc_hd__and2_2
A_624_ [_051_ _252_ _007_] _253_ d_lut_sky130_fd_sc_hd__mux2_2
A_625_ [_053_ _049_ _253_] _254_ d_lut_sky130_fd_sc_hd__and3_2
A_626_ [_098_ _216_ _251_ _254_] col_out_n_26_ d_lut_sky130_fd_sc_hd__a211oi_4
A_627_ [_136_ _172_ _227_ _009_] _255_ d_lut_sky130_fd_sc_hd__a22o_2
A_628_ [_205_ _105_] _256_ d_lut_sky130_fd_sc_hd__and2_2
A_629_ [_140_ _255_ _256_] col_out_n_27_ d_lut_sky130_fd_sc_hd__a21oi_2
A_630_ [_022_ _026_ _040_ _048_ _047_] _257_ d_lut_sky130_fd_sc_hd__o311a_2
A_631_ [_079_ _064_ _083_] _258_ d_lut_sky130_fd_sc_hd__or3_2
A_632_ [_062_ _257_ _258_] _259_ d_lut_sky130_fd_sc_hd__o21ai_2
A_633_ [_029_ _049_ _076_] _260_ d_lut_sky130_fd_sc_hd__a21oi_2
A_634_ [_076_ _259_ _260_] col_out_n_28_ d_lut_sky130_fd_sc_hd__a21o_2
A_635_ [_056_ _065_ _062_] _261_ d_lut_sky130_fd_sc_hd__mux2_2
A_636_ [_098_ _261_] _262_ d_lut_sky130_fd_sc_hd__nor2_2
A_637_ [_047_ _253_ _049_ _082_] _263_ d_lut_sky130_fd_sc_hd__o211a_2
A_638_ [_016_ _007_ _212_ _113_] _264_ d_lut_sky130_fd_sc_hd__a211o_2
A_639_ [_262_ _263_ _264_] col_out_n_29_ d_lut_sky130_fd_sc_hd__o21ai_2
A_640_ [_056_ _070_ _168_] _265_ d_lut_sky130_fd_sc_hd__nand3b_2
A_641_ [_034_ _062_ _044_ _009_] _266_ d_lut_sky130_fd_sc_hd__a31o_2
A_642_ [_102_ _265_ _266_] _267_ d_lut_sky130_fd_sc_hd__a21oi_2
A_643_ [_111_ _257_ _267_] col_out_n_30_ d_lut_sky130_fd_sc_hd__a21oi_2
A_644_ [_140_ _007_ _019_] _268_ d_lut_sky130_fd_sc_hd__nand3_2
A_645_ [_265_ _268_] _269_ d_lut_sky130_fd_sc_hd__nand2_2
A_646_ [_034_ _041_ _094_ _009_] _270_ d_lut_sky130_fd_sc_hd__a31o_2
A_647_ [_027_ _102_] _271_ d_lut_sky130_fd_sc_hd__and2_2
A_648_ [_111_ _269_ _270_ _271_] col_out_n_31_ d_lut_sky130_fd_sc_hd__o2bb2a_2
A_649_ [data_in_9_] _272_ d_lut_sky130_fd_sc_hd__buf_1
A_650_ [_272_] _273_ d_lut_sky130_fd_sc_hd__buf_1
A_651_ [_003_ data_in_11_] _274_ d_lut_sky130_fd_sc_hd__nand2_2
A_652_ [_003_ data_in_11_] _275_ d_lut_sky130_fd_sc_hd__or2_2
A_653_ [_274_ _275_ _090_] _276_ d_lut_sky130_fd_sc_hd__mux2_2
A_654_ [_273_ _137_ _276_] _277_ d_lut_sky130_fd_sc_hd__or3_2
A_655_ [_277_] row_out_n_1_ d_lut_sky130_fd_sc_hd__buf_1
A_656_ [_003_] _278_ d_lut_sky130_fd_sc_hd__buf_1
A_657_ [_278_] _279_ d_lut_sky130_fd_sc_hd__buf_1
A_658_ [_013_ data_in_11_] _280_ d_lut_sky130_fd_sc_hd__nand2_2
A_659_ [_013_ data_in_11_] _281_ d_lut_sky130_fd_sc_hd__or2_2
A_660_ [_280_ _281_ _090_] _282_ d_lut_sky130_fd_sc_hd__mux2_2
A_661_ [_279_ _282_ _273_] _283_ d_lut_sky130_fd_sc_hd__or3b_2
A_662_ [_283_] row_out_n_2_ d_lut_sky130_fd_sc_hd__buf_2
A_663_ [data_in_11_] _284_ d_lut_sky130_fd_sc_hd__buf_1
A_664_ [_090_ _272_ _284_] _285_ d_lut_sky130_fd_sc_hd__or3b_2
A_665_ [_144_ _284_ _272_] _286_ d_lut_sky130_fd_sc_hd__or3b_2
A_666_ [_137_ _003_] _287_ d_lut_sky130_fd_sc_hd__or2_2
A_667_ [_285_ _286_ _287_] row_out_n_3_ d_lut_sky130_fd_sc_hd__a21o_2
A_668_ [_284_] _288_ d_lut_sky130_fd_sc_hd__buf_2
A_669_ [data_in_9_ _013_] _289_ d_lut_sky130_fd_sc_hd__nand2_2
A_670_ [data_in_9_ _013_] _290_ d_lut_sky130_fd_sc_hd__or2_2
A_671_ [_289_ _290_ _090_] _291_ d_lut_sky130_fd_sc_hd__mux2_2
A_672_ [_288_ _291_ _278_] _292_ d_lut_sky130_fd_sc_hd__or3b_2
A_673_ [_292_] row_out_n_4_ d_lut_sky130_fd_sc_hd__buf_2
A_674_ [_137_ _003_] _293_ d_lut_sky130_fd_sc_hd__nand2_2
A_675_ [_287_ _293_ _090_] _294_ d_lut_sky130_fd_sc_hd__mux2_2
A_676_ [_288_ _294_ _272_] _295_ d_lut_sky130_fd_sc_hd__or3b_2
A_677_ [_295_] row_out_n_6_ d_lut_sky130_fd_sc_hd__buf_1
A_678_ [_288_] _296_ d_lut_sky130_fd_sc_hd__buf_1
A_679_ [data_in_9_ _003_] _297_ d_lut_sky130_fd_sc_hd__or2_2
A_680_ [_272_ _278_] _298_ d_lut_sky130_fd_sc_hd__nand2_2
A_681_ [_297_ _298_ _090_] _299_ d_lut_sky130_fd_sc_hd__mux2_2
A_682_ [_137_ _296_ _299_] _300_ d_lut_sky130_fd_sc_hd__or3_2
A_683_ [_300_] row_out_n_7_ d_lut_sky130_fd_sc_hd__buf_1
A_684_ [_278_ _290_] _301_ d_lut_sky130_fd_sc_hd__or2_2
A_685_ [_144_] _302_ d_lut_sky130_fd_sc_hd__buf_2
A_686_ [_302_ _296_] _303_ d_lut_sky130_fd_sc_hd__xnor2_2
A_687_ [_301_ _303_] _304_ d_lut_sky130_fd_sc_hd__or2_2
A_688_ [_304_] row_out_n_8_ d_lut_sky130_fd_sc_hd__buf_1
A_689_ [_005_ _013_ data_in_11_ data_in_9_] _305_ d_lut_sky130_fd_sc_hd__or4b_2
A_690_ [_124_ _272_ _280_ _305_] _306_ d_lut_sky130_fd_sc_hd__o31a_2
A_691_ [_279_ _306_] _307_ d_lut_sky130_fd_sc_hd__or2_2
A_692_ [_307_] row_out_n_9_ d_lut_sky130_fd_sc_hd__buf_2
A_693_ [_124_ _278_ _284_ _272_] _308_ d_lut_sky130_fd_sc_hd__or4bb_2
A_694_ [_090_ data_in_9_ _284_ _003_] _309_ d_lut_sky130_fd_sc_hd__or4b_2
A_695_ [_308_ _309_ _145_] row_out_n_10_ d_lut_sky130_fd_sc_hd__a21o_2
A_696_ [_287_ _141_ _284_] _310_ d_lut_sky130_fd_sc_hd__and3b_2
A_697_ [_141_ _288_ _293_] _311_ d_lut_sky130_fd_sc_hd__nor3_2
A_698_ [_310_ _311_ _273_] row_out_n_11_ d_lut_sky130_fd_sc_hd__o21ai_2
A_699_ [_124_ _278_] _312_ d_lut_sky130_fd_sc_hd__xnor2_2
A_700_ [_312_ _290_ _284_] _313_ d_lut_sky130_fd_sc_hd__or3b_2
A_701_ [_313_] row_out_n_12_ d_lut_sky130_fd_sc_hd__buf_1
A_702_ [_145_ _279_] _314_ d_lut_sky130_fd_sc_hd__nor2_2
A_703_ [_124_ _272_ _145_ _278_] _315_ d_lut_sky130_fd_sc_hd__and4bb_2
A_704_ [_144_ _273_ _314_ _315_] _316_ d_lut_sky130_fd_sc_hd__a31o_2
A_705_ [_296_ _316_] row_out_n_13_ d_lut_sky130_fd_sc_hd__nand2_2
A_706_ [_124_ _272_] _317_ d_lut_sky130_fd_sc_hd__xnor2_2
A_707_ [_317_ _293_ _284_] _318_ d_lut_sky130_fd_sc_hd__or3b_2
A_708_ [_318_] row_out_n_14_ d_lut_sky130_fd_sc_hd__buf_1
A_709_ [_079_ _298_ _284_] _319_ d_lut_sky130_fd_sc_hd__or3b_2
A_710_ [_319_] row_out_n_15_ d_lut_sky130_fd_sc_hd__buf_1
A_711_ [_022_] rowon_out_n_0_ d_lut_sky130_fd_sc_hd__inv_2
A_712_ [_302_ _274_] _320_ d_lut_sky130_fd_sc_hd__nand2_2
A_713_ [_279_ _288_] _321_ d_lut_sky130_fd_sc_hd__nor2_2
A_714_ [_273_ _320_ _321_ _302_] rowon_out_n_1_ d_lut_sky130_fd_sc_hd__o2bb2a_2
A_715_ [_302_ _274_ _289_ _321_] rowon_out_n_2_ d_lut_sky130_fd_sc_hd__a22o_2
A_716_ [_288_ _297_] _322_ d_lut_sky130_fd_sc_hd__nand2_2
A_717_ [_302_ _322_ _321_] rowon_out_n_3_ d_lut_sky130_fd_sc_hd__a21o_2
A_718_ [_279_ _290_] _323_ d_lut_sky130_fd_sc_hd__nand2_2
A_719_ [_144_ _323_ _288_] _324_ d_lut_sky130_fd_sc_hd__o21ba_2
A_720_ [_324_] rowon_out_n_4_ d_lut_sky130_fd_sc_hd__buf_1
A_721_ [_141_ _289_] _325_ d_lut_sky130_fd_sc_hd__nand2_2
A_722_ [_279_ _325_ _296_] rowon_out_n_6_ d_lut_sky130_fd_sc_hd__a21oi_2
A_723_ [_302_ _297_ _296_] rowon_out_n_7_ d_lut_sky130_fd_sc_hd__a21oi_2
A_724_ [_141_ _004_] _326_ d_lut_sky130_fd_sc_hd__nor2_2
A_725_ [_296_ _301_ _326_] rowon_out_n_8_ d_lut_sky130_fd_sc_hd__a21oi_2
A_726_ [_289_ _321_ _322_ _141_] rowon_out_n_9_ d_lut_sky130_fd_sc_hd__a22o_2
A_727_ [_145_ _278_ _288_] _327_ d_lut_sky130_fd_sc_hd__o21a_2
A_728_ [_144_ _278_ _281_] _328_ d_lut_sky130_fd_sc_hd__o21a_2
A_729_ [_144_ _327_ _328_ _273_ _275_] rowon_out_n_10_ d_lut_sky130_fd_sc_hd__o221ai_2
A_730_ [_273_ _145_ _279_ _288_] _329_ d_lut_sky130_fd_sc_hd__a31o_2
A_731_ [_302_ _329_ _274_] rowon_out_n_11_ d_lut_sky130_fd_sc_hd__a21boi_2
A_732_ [_144_ _301_] _330_ d_lut_sky130_fd_sc_hd__nand2_2
A_733_ [_323_ _330_ _288_] _331_ d_lut_sky130_fd_sc_hd__a21bo_2
A_734_ [_331_] rowon_out_n_12_ d_lut_sky130_fd_sc_hd__buf_2
A_735_ [_273_ _145_ _279_] _332_ d_lut_sky130_fd_sc_hd__a21oi_2
A_736_ [_141_ _332_ _298_] _333_ d_lut_sky130_fd_sc_hd__o21ai_2
A_737_ [_296_ _333_] rowon_out_n_13_ d_lut_sky130_fd_sc_hd__nand2_2
A_738_ [_302_ _290_] _334_ d_lut_sky130_fd_sc_hd__nand2_2
A_739_ [_289_ _334_ _274_] rowon_out_n_14_ d_lut_sky130_fd_sc_hd__a21o_2
A_740_ [_302_ _001_] rowon_out_n_15_ d_lut_sky130_fd_sc_hd__nand2_2
A_741_ [_010_ _012_ _014_ _020_ _031_] col_out_0_ d_lut_sky130_fd_sc_hd__o221a_2
A_742_ [_034_ _037_ _045_ _055_ _061_] col_out_1_ d_lut_sky130_fd_sc_hd__a311oi_4
A_743_ [_075_ _081_ _086_] col_out_2_ d_lut_sky130_fd_sc_hd__a21o_2
A_744_ [_082_ row_out_n_0_ _088_ _089_ _097_] col_out_3_ d_lut_sky130_fd_sc_hd__a311oi_2
A_745_ [_108_ _110_ _099_ _101_] col_out_4_ d_lut_sky130_fd_sc_hd__a2bb2o_2
A_746_ [_098_ _116_ _119_ _121_] col_out_5_ d_lut_sky130_fd_sc_hd__a211oi_2
A_747_ [_054_ _122_ _128_ _129_ _131_] col_out_6_ d_lut_sky130_fd_sc_hd__o221a_2
A_748_ [_010_ _134_ _135_ _142_ _148_] col_out_7_ d_lut_sky130_fd_sc_hd__a32oi_2
A_749_ [_152_ _153_ _037_ _149_] col_out_8_ d_lut_sky130_fd_sc_hd__a2bb2o_2
A_750_ [_158_ _161_ _164_ _099_] col_out_9_ d_lut_sky130_fd_sc_hd__a22o_4
A_751_ [_099_ _165_ _170_] col_out_10_ d_lut_sky130_fd_sc_hd__a21boi_2
A_752_ [_076_ _157_ _173_ _176_] col_out_11_ d_lut_sky130_fd_sc_hd__o22a_2
A_753_ [_099_ _177_ _181_] col_out_12_ d_lut_sky130_fd_sc_hd__a21boi_2
A_754_ [_010_ _182_ _184_ _185_ _186_] col_out_13_ d_lut_sky130_fd_sc_hd__o32a_4
A_755_ [_076_ _192_ _194_ _195_] col_out_14_ d_lut_sky130_fd_sc_hd__a31o_2
A_756_ [_111_ _199_ _200_ _202_] col_out_16_ d_lut_sky130_fd_sc_hd__a22o_4
A_757_ [_037_ _203_ _204_ _205_ _206_] col_out_17_ d_lut_sky130_fd_sc_hd__a221o_2
A_758_ [_037_ _135_ _209_ _211_] col_out_18_ d_lut_sky130_fd_sc_hd__a31oi_2
A_759_ [_212_ _128_ _185_ _213_ _214_] col_out_19_ d_lut_sky130_fd_sc_hd__o221a_2
A_760_ [_010_ _216_ _218_ _219_ _149_] col_out_20_ d_lut_sky130_fd_sc_hd__o32a_4
A_761_ [_010_ _222_ _223_ _224_ _226_] col_out_21_ d_lut_sky130_fd_sc_hd__o221ai_2
A_762_ [_230_ _236_] _335_ d_lut_sky130_fd_sc_hd__and2_2
A_763_ [_335_] col_out_22_ d_lut_sky130_fd_sc_hd__buf_2
A_764_ [_082_ _237_ _239_ _241_] col_out_23_ d_lut_sky130_fd_sc_hd__o31ai_2
A_765_ [_037_ _242_ _243_ _098_ _244_] col_out_24_ d_lut_sky130_fd_sc_hd__a221oi_2
A_766_ [_111_ _209_ _249_] col_out_25_ d_lut_sky130_fd_sc_hd__a21oi_2
A_767_ [_111_ _216_ _251_ _254_] col_out_26_ d_lut_sky130_fd_sc_hd__a211o_2
A_768_ [_140_ _255_ _256_] col_out_27_ d_lut_sky130_fd_sc_hd__a21o_2
A_769_ [_076_ _259_ _260_] col_out_28_ d_lut_sky130_fd_sc_hd__a21oi_2
A_770_ [_262_ _263_ _264_] col_out_29_ d_lut_sky130_fd_sc_hd__o21a_2
A_771_ [_099_ _257_ _267_] col_out_30_ d_lut_sky130_fd_sc_hd__a21o_2