* NGSPICE file created from adc_clkgen_with_edgedetect.ext - technology: sky130A

.subckt sky130_fd_sc_hd__inv_2 A Y VPWR VGND VNB VPB
X0 Y A VPWR VPB sky130_fd_pr__pfet_01v8_hvt ad=0p pd=0u as=0p ps=0u w=1e+06u l=150000u
X1 VGND A Y VNB sky130_fd_pr__nfet_01v8 ad=0p pd=0u as=0p ps=0u w=650000u l=150000u
X2 Y A VGND VNB sky130_fd_pr__nfet_01v8 ad=0p pd=0u as=0p ps=0u w=650000u l=150000u
X3 VPWR A Y VPB sky130_fd_pr__pfet_01v8_hvt ad=0p pd=0u as=0p ps=0u w=1e+06u l=150000u
.ends

.subckt sky130_fd_sc_hd__decap_4 VGND VPWR VNB VPB
X0 VPWR VGND VPWR VPB sky130_fd_pr__pfet_01v8_hvt ad=0p pd=0u as=0p ps=0u w=870000u l=1.05e+06u
X1 VGND VPWR VGND VNB sky130_fd_pr__nfet_01v8 ad=0p pd=0u as=0p ps=0u w=550000u l=1.05e+06u
.ends

.subckt sky130_fd_sc_hd__mux2_1 VGND VPWR S A1 A0 X VNB VPB
X0 VPWR a_505_21# a_535_374# VPB sky130_fd_pr__pfet_01v8_hvt ad=0p pd=0u as=0p ps=0u w=420000u l=150000u
X1 a_505_21# S VPWR VPB sky130_fd_pr__pfet_01v8_hvt ad=0p pd=0u as=0p ps=0u w=420000u l=150000u
X2 a_218_374# S VPWR VPB sky130_fd_pr__pfet_01v8_hvt ad=0p pd=0u as=0p ps=0u w=420000u l=150000u
X3 VGND a_505_21# a_439_47# VNB sky130_fd_pr__nfet_01v8 ad=0p pd=0u as=0p ps=0u w=420000u l=150000u
X4 a_76_199# A0 a_218_374# VPB sky130_fd_pr__pfet_01v8_hvt ad=0p pd=0u as=0p ps=0u w=420000u l=150000u
X5 a_505_21# S VGND VNB sky130_fd_pr__nfet_01v8 ad=0p pd=0u as=0p ps=0u w=420000u l=150000u
X6 a_439_47# A0 a_76_199# VNB sky130_fd_pr__nfet_01v8 ad=0p pd=0u as=0p ps=0u w=420000u l=150000u
X7 a_535_374# A1 a_76_199# VPB sky130_fd_pr__pfet_01v8_hvt ad=0p pd=0u as=0p ps=0u w=420000u l=150000u
X8 a_76_199# A1 a_218_47# VNB sky130_fd_pr__nfet_01v8 ad=0p pd=0u as=0p ps=0u w=420000u l=150000u
X9 a_218_47# S VGND VNB sky130_fd_pr__nfet_01v8 ad=0p pd=0u as=0p ps=0u w=420000u l=150000u
X10 VPWR a_76_199# X VPB sky130_fd_pr__pfet_01v8_hvt ad=0p pd=0u as=0p ps=0u w=1e+06u l=150000u
X11 VGND a_76_199# X VNB sky130_fd_pr__nfet_01v8 ad=0p pd=0u as=0p ps=0u w=650000u l=150000u
.ends

.subckt sky130_fd_sc_hd__decap_3 VPWR VGND VNB VPB
X0 VPWR VGND VPWR VPB sky130_fd_pr__pfet_01v8_hvt ad=0p pd=0u as=0p ps=0u w=870000u l=590000u
X1 VGND VPWR VGND VNB sky130_fd_pr__nfet_01v8 ad=0p pd=0u as=0p ps=0u w=550000u l=590000u
.ends

.subckt sky130_fd_sc_hd__diode_2 DIODE VGND VPWR VPB VNB
D0 VNB DIODE sky130_fd_pr__diode_pw2nd_05v5 pj=2.64e+06u area=4.347e+11p
.ends

.subckt sky130_fd_sc_hd__or2_1 A X B VGND VPWR VNB VPB
X0 VGND A a_68_297# VNB sky130_fd_pr__nfet_01v8 ad=0p pd=0u as=0p ps=0u w=420000u l=150000u
X1 a_68_297# B VGND VNB sky130_fd_pr__nfet_01v8 ad=0p pd=0u as=0p ps=0u w=420000u l=150000u
X2 X a_68_297# VGND VNB sky130_fd_pr__nfet_01v8 ad=0p pd=0u as=0p ps=0u w=650000u l=150000u
X3 VPWR A a_150_297# VPB sky130_fd_pr__pfet_01v8_hvt ad=0p pd=0u as=0p ps=0u w=420000u l=150000u
X4 X a_68_297# VPWR VPB sky130_fd_pr__pfet_01v8_hvt ad=0p pd=0u as=0p ps=0u w=1e+06u l=150000u
X5 a_150_297# B a_68_297# VPB sky130_fd_pr__pfet_01v8_hvt ad=0p pd=0u as=0p ps=0u w=420000u l=150000u
.ends

.subckt sky130_mm_sc_hd_dlyPoly5ns VPWR in out VGND VNB VPB
X0 a_851_95# in VGND VNB sky130_fd_pr__nfet_01v8 ad=0p pd=0u as=0p ps=0u w=420000u l=3.83e+06u
X1 a_1724_71# a_851_95# VGND VNB sky130_fd_pr__nfet_01v8 ad=0p pd=0u as=0p ps=0u w=420000u l=150000u
X2 VPWR out a_1724_71# VNB sky130_fd_pr__nfet_01v8 ad=0p pd=0u as=0p ps=0u w=420000u l=150000u
X3 VGND out a_1783_329# VPB sky130_fd_pr__pfet_01v8 ad=0p pd=0u as=0p ps=0u w=800000u l=150000u
X4 a_1783_329# out VGND VPB sky130_fd_pr__pfet_01v8 ad=0p pd=0u as=0p ps=0u w=800000u l=150000u
X5 a_1724_71# out VPWR VNB sky130_fd_pr__nfet_01v8 ad=0p pd=0u as=0p ps=0u w=420000u l=150000u
X6 VGND a_851_95# VGND VNB sky130_fd_pr__nfet_01v8 ad=0p pd=0u as=0p ps=0u w=1.375e+06u l=2.25e+06u
X7 a_1783_329# a_851_95# VPWR VPB sky130_fd_pr__pfet_01v8 ad=0p pd=0u as=0p ps=0u w=800000u l=150000u
X8 out a_851_95# a_1783_329# VPB sky130_fd_pr__pfet_01v8 ad=0p pd=0u as=0p ps=0u w=800000u l=150000u
X9 a_851_95# in VPWR VPB sky130_fd_pr__pfet_01v8_lvt ad=0p pd=0u as=0p ps=0u w=800000u l=3.83e+06u
X10 out a_851_95# a_1724_71# VNB sky130_fd_pr__nfet_01v8 ad=0p pd=0u as=0p ps=0u w=420000u l=150000u
.ends

.subckt sky130_fd_sc_hd__and2_1 VPWR VGND X B A VNB VPB
X0 VPWR B a_59_75# VPB sky130_fd_pr__pfet_01v8_hvt ad=0p pd=0u as=0p ps=0u w=420000u l=150000u
X1 X a_59_75# VPWR VPB sky130_fd_pr__pfet_01v8_hvt ad=0p pd=0u as=0p ps=0u w=1e+06u l=150000u
X2 VGND B a_145_75# VNB sky130_fd_pr__nfet_01v8 ad=0p pd=0u as=0p ps=0u w=420000u l=150000u
X3 a_59_75# A VPWR VPB sky130_fd_pr__pfet_01v8_hvt ad=0p pd=0u as=0p ps=0u w=420000u l=150000u
X4 X a_59_75# VGND VNB sky130_fd_pr__nfet_01v8 ad=0p pd=0u as=0p ps=0u w=650000u l=150000u
X5 a_145_75# A a_59_75# VNB sky130_fd_pr__nfet_01v8 ad=0p pd=0u as=0p ps=0u w=420000u l=150000u
.ends

.subckt sky130_ef_sc_hd__decap_12 VGND VPWR VNB VPB
X0 VPWR VGND VPWR VPB sky130_fd_pr__pfet_01v8_hvt ad=0p pd=0u as=0p ps=0u w=870000u l=4.73e+06u
X1 VGND VPWR VGND VNB sky130_fd_pr__nfet_01v8 ad=0p pd=0u as=0p ps=0u w=550000u l=4.73e+06u
.ends

.subckt sky130_fd_sc_hd__nor2b_1 B_N Y A VGND VPWR VNB VPB
X0 Y a_74_47# a_265_297# VPB sky130_fd_pr__pfet_01v8_hvt ad=0p pd=0u as=0p ps=0u w=1e+06u l=150000u
X1 VPWR B_N a_74_47# VPB sky130_fd_pr__pfet_01v8_hvt ad=0p pd=0u as=0p ps=0u w=420000u l=150000u
X2 a_265_297# A VPWR VPB sky130_fd_pr__pfet_01v8_hvt ad=0p pd=0u as=0p ps=0u w=1e+06u l=150000u
X3 Y A VGND VNB sky130_fd_pr__nfet_01v8 ad=0p pd=0u as=0p ps=0u w=650000u l=150000u
X4 VGND B_N a_74_47# VNB sky130_fd_pr__nfet_01v8 ad=0p pd=0u as=0p ps=0u w=420000u l=150000u
X5 VGND a_74_47# Y VNB sky130_fd_pr__nfet_01v8 ad=0p pd=0u as=0p ps=0u w=650000u l=150000u
.ends

.subckt sky130_fd_sc_hd__decap_6 VPWR VGND VNB VPB
X0 VPWR VGND VPWR VPB sky130_fd_pr__pfet_01v8_hvt ad=0p pd=0u as=0p ps=0u w=870000u l=1.97e+06u
X1 VGND VPWR VGND VNB sky130_fd_pr__nfet_01v8 ad=0p pd=0u as=0p ps=0u w=550000u l=1.97e+06u
.ends

.subckt sky130_fd_sc_hd__and2b_1 X A_N B VGND VPWR VNB VPB
X0 VPWR B a_207_413# VPB sky130_fd_pr__pfet_01v8_hvt ad=0p pd=0u as=0p ps=0u w=420000u l=150000u
X1 X a_207_413# VPWR VPB sky130_fd_pr__pfet_01v8_hvt ad=0p pd=0u as=0p ps=0u w=1e+06u l=150000u
X2 a_297_47# a_27_413# a_207_413# VNB sky130_fd_pr__nfet_01v8 ad=0p pd=0u as=0p ps=0u w=420000u l=150000u
X3 X a_207_413# VGND VNB sky130_fd_pr__nfet_01v8 ad=0p pd=0u as=0p ps=0u w=650000u l=150000u
X4 a_207_413# a_27_413# VPWR VPB sky130_fd_pr__pfet_01v8_hvt ad=0p pd=0u as=0p ps=0u w=420000u l=150000u
X5 VPWR A_N a_27_413# VPB sky130_fd_pr__pfet_01v8_hvt ad=0p pd=0u as=0p ps=0u w=420000u l=150000u
X6 VGND B a_297_47# VNB sky130_fd_pr__nfet_01v8 ad=0p pd=0u as=0p ps=0u w=420000u l=150000u
X7 a_27_413# A_N VGND VNB sky130_fd_pr__nfet_01v8 ad=0p pd=0u as=0p ps=0u w=420000u l=150000u
.ends

.subckt sky130_fd_sc_hd__buf_1 VGND VPWR X A VNB VPB
X0 VPWR A a_27_47# VPB sky130_fd_pr__pfet_01v8_hvt ad=0p pd=0u as=0p ps=0u w=790000u l=150000u
X1 X a_27_47# VGND VNB sky130_fd_pr__nfet_01v8 ad=0p pd=0u as=0p ps=0u w=520000u l=150000u
X2 X a_27_47# VPWR VPB sky130_fd_pr__pfet_01v8_hvt ad=0p pd=0u as=0p ps=0u w=790000u l=150000u
X3 VGND A a_27_47# VNB sky130_fd_pr__nfet_01v8 ad=0p pd=0u as=0p ps=0u w=520000u l=150000u
.ends

.subckt sky130_fd_sc_hd__dlymetal6s6s_1 VPWR VGND A X VNB VPB
X0 X a_629_47# VGND VNB sky130_fd_pr__nfet_01v8 ad=0p pd=0u as=0p ps=0u w=650000u l=150000u
X1 a_523_47# a_346_47# VGND VNB sky130_fd_pr__nfet_01v8 ad=0p pd=0u as=0p ps=0u w=650000u l=150000u
X2 VGND a_240_47# a_346_47# VNB sky130_fd_pr__nfet_01v8 ad=0p pd=0u as=0p ps=0u w=420000u l=150000u
X3 a_240_47# a_63_47# VGND VNB sky130_fd_pr__nfet_01v8 ad=0p pd=0u as=0p ps=0u w=650000u l=150000u
X4 VPWR a_240_47# a_346_47# VPB sky130_fd_pr__pfet_01v8_hvt ad=0p pd=0u as=0p ps=0u w=420000u l=150000u
X5 VGND A a_63_47# VNB sky130_fd_pr__nfet_01v8 ad=0p pd=0u as=0p ps=0u w=420000u l=150000u
X6 VPWR A a_63_47# VPB sky130_fd_pr__pfet_01v8_hvt ad=0p pd=0u as=0p ps=0u w=420000u l=150000u
X7 VPWR a_523_47# a_629_47# VPB sky130_fd_pr__pfet_01v8_hvt ad=0p pd=0u as=0p ps=0u w=420000u l=150000u
X8 VGND a_523_47# a_629_47# VNB sky130_fd_pr__nfet_01v8 ad=0p pd=0u as=0p ps=0u w=420000u l=150000u
X9 a_523_47# a_346_47# VPWR VPB sky130_fd_pr__pfet_01v8_hvt ad=0p pd=0u as=0p ps=0u w=1e+06u l=150000u
X10 a_240_47# a_63_47# VPWR VPB sky130_fd_pr__pfet_01v8_hvt ad=0p pd=0u as=0p ps=0u w=1e+06u l=150000u
X11 X a_629_47# VPWR VPB sky130_fd_pr__pfet_01v8_hvt ad=0p pd=0u as=0p ps=0u w=1e+06u l=150000u
.ends

.subckt sky130_fd_sc_hd__decap_8 VPWR VGND VNB VPB
X0 VPWR VGND VPWR VPB sky130_fd_pr__pfet_01v8_hvt ad=0p pd=0u as=0p ps=0u w=870000u l=2.89e+06u
X1 VGND VPWR VGND VNB sky130_fd_pr__nfet_01v8 ad=0p pd=0u as=0p ps=0u w=550000u l=2.89e+06u
.ends

.subckt sky130_fd_sc_hd__buf_4 VPWR VGND X A VNB VPB
X0 VPWR a_27_47# X VPB sky130_fd_pr__pfet_01v8_hvt ad=0p pd=0u as=0p ps=0u w=1e+06u l=150000u
X1 X a_27_47# VPWR VPB sky130_fd_pr__pfet_01v8_hvt ad=0p pd=0u as=0p ps=0u w=1e+06u l=150000u
X2 VPWR a_27_47# X VPB sky130_fd_pr__pfet_01v8_hvt ad=0p pd=0u as=0p ps=0u w=1e+06u l=150000u
X3 X a_27_47# VPWR VPB sky130_fd_pr__pfet_01v8_hvt ad=0p pd=0u as=0p ps=0u w=1e+06u l=150000u
X4 X a_27_47# VGND VNB sky130_fd_pr__nfet_01v8 ad=0p pd=0u as=0p ps=0u w=650000u l=150000u
X5 X a_27_47# VGND VNB sky130_fd_pr__nfet_01v8 ad=0p pd=0u as=0p ps=0u w=650000u l=150000u
X6 VGND a_27_47# X VNB sky130_fd_pr__nfet_01v8 ad=0p pd=0u as=0p ps=0u w=650000u l=150000u
X7 VGND a_27_47# X VNB sky130_fd_pr__nfet_01v8 ad=0p pd=0u as=0p ps=0u w=650000u l=150000u
X8 VPWR A a_27_47# VPB sky130_fd_pr__pfet_01v8_hvt ad=0p pd=0u as=0p ps=0u w=1e+06u l=150000u
X9 VGND A a_27_47# VNB sky130_fd_pr__nfet_01v8 ad=0p pd=0u as=0p ps=0u w=650000u l=150000u
.ends

.subckt adc_clkgen_with_edgedetect VGND VPWR clk_comp_out clk_dig_out dlycontrol1_in[0]
+ dlycontrol1_in[1] dlycontrol1_in[2] dlycontrol1_in[3] dlycontrol1_in[4] dlycontrol2_in[0]
+ dlycontrol2_in[1] dlycontrol2_in[2] dlycontrol2_in[3] dlycontrol2_in[4] dlycontrol3_in[0]
+ dlycontrol3_in[1] dlycontrol3_in[2] dlycontrol3_in[3] dlycontrol3_in[4] dlycontrol4_in[0]
+ dlycontrol4_in[1] dlycontrol4_in[2] dlycontrol4_in[3] dlycontrol4_in[4] dlycontrol4_in[5]
+ ena_in enable_dlycontrol_in ndecision_finish_in nsample_n_in nsample_n_out nsample_p_in
+ nsample_p_out sample_n_in sample_n_out sample_p_in sample_p_out start_conv_in
Xclkgen.delay_155ns_2.genblk1\[0\].control_invert dlycontrol2_in[0] clkgen.delay_155ns_2.genblk1\[0\].bypass_enable/B
+ VPWR VGND VGND VPWR sky130_fd_sc_hd__inv_2
XFILLER_2_302 VGND VPWR VGND VPWR sky130_fd_sc_hd__decap_4
Xclkgen.delay_155ns_2.genblk1\[0\].dly_binary.out_mux VGND VPWR clkgen.delay_155ns_2.genblk1\[0\].bypass_enable/X
+ outbuf_1/A clkgen.delay_155ns_2.genblk1\[0\].dly_binary.out_mux/A0 clkgen.delay_155ns_2.genblk1\[0\].dly_binary.out_mux/X
+ VGND VPWR sky130_fd_sc_hd__mux2_1
XFILLER_18_214 VPWR VGND VGND VPWR sky130_fd_sc_hd__decap_3
XFILLER_5_195 VGND VPWR VGND VPWR sky130_fd_sc_hd__decap_4
Xclkgen.delay_155ns_2.genblk1\[2\].dly_binary.out_mux VGND VPWR clkgen.delay_155ns_2.genblk1\[2\].bypass_enable/X
+ clkgen.delay_155ns_2.genblk1\[1\].dly_binary.out_mux/X clkgen.delay_155ns_2.genblk1\[2\].dly_binary.out_mux/A0
+ clkgen.delay_155ns_2.genblk1\[2\].dly_binary.out_mux/X VGND VPWR sky130_fd_sc_hd__mux2_1
XANTENNA_clkgen.delay_155ns_1.genblk1\[2\].control_invert_A dlycontrol1_in[2] VGND
+ VPWR VPWR VGND sky130_fd_sc_hd__diode_2
Xclkgen.delay_155ns_2.genblk1\[4\].dly_binary.out_mux VGND VPWR clkgen.delay_155ns_2.genblk1\[4\].bypass_enable/X
+ clkgen.delay_155ns_2.genblk1\[3\].dly_binary.out_mux/X clkgen.delay_155ns_2.genblk1\[4\].dly_binary.out_mux/A0
+ clkgen.nor1/A VGND VPWR sky130_fd_sc_hd__mux2_1
Xedgedetect.or1 edgedetect.or1/A clkgen.nor1/B_N inbuf_1/X VGND VPWR VGND VPWR sky130_fd_sc_hd__or2_1
XFILLER_11_231 VGND VPWR VGND VPWR sky130_fd_sc_hd__decap_4
XFILLER_19_331 VGND VPWR VGND VPWR sky130_fd_sc_hd__decap_4
Xclkgen.delay_155ns_3.genblk1\[0\].dly_binary.genblk1\[0\].delay_unit VPWR clkgen.delay_155ns_3.genblk1\[0\].dly_binary.and_bypass_switch/X
+ clkgen.delay_155ns_3.genblk1\[0\].dly_binary.out_mux/A0 VGND VGND VPWR sky130_mm_sc_hd_dlyPoly5ns
Xedgedetect.dly_315ns_1.genblk1\[1\].bypass_enable VPWR VGND edgedetect.dly_315ns_1.genblk1\[1\].bypass_enable/X
+ edgedetect.dly_315ns_1.genblk1\[1\].bypass_enable/B edgedetect.dly_315ns_1.enablebuffer/X
+ VGND VPWR sky130_fd_sc_hd__and2_1
XFILLER_13_3 VPWR VGND VGND VPWR sky130_fd_sc_hd__decap_3
Xclkgen.delay_155ns_1.genblk1\[4\].dly_binary.genblk1\[14\].delay_unit VPWR clkgen.delay_155ns_1.genblk1\[4\].dly_binary.genblk1\[14\].delay_unit/in
+ clkgen.delay_155ns_1.genblk1\[4\].dly_binary.genblk1\[15\].delay_unit/in VGND VGND
+ VPWR sky130_mm_sc_hd_dlyPoly5ns
XANTENNA_clkgen.delay_155ns_2.genblk1\[1\].control_invert_A dlycontrol2_in[1] VGND
+ VPWR VPWR VGND sky130_fd_sc_hd__diode_2
XFILLER_16_164 VGND VPWR VGND VPWR sky130_fd_sc_hd__decap_4
XFILLER_7_8 VGND VPWR VGND VPWR sky130_fd_sc_hd__decap_4
XANTENNA_clkgen.delay_155ns_2.genblk1\[1\].dly_binary.and_bypass_switch_A_N clkgen.delay_155ns_2.genblk1\[1\].bypass_enable/X
+ VGND VPWR VPWR VGND sky130_fd_sc_hd__diode_2
Xclkgen.delay_155ns_1.genblk1\[2\].bypass_enable VPWR VGND clkgen.delay_155ns_1.genblk1\[2\].bypass_enable/X
+ clkgen.delay_155ns_1.genblk1\[2\].bypass_enable/B clkgen.delay_155ns_1.enablebuffer/X
+ VGND VPWR sky130_fd_sc_hd__and2_1
XFILLER_2_314 VGND VPWR VGND VPWR sky130_ef_sc_hd__decap_12
Xclkgen.delay_155ns_2.genblk1\[3\].bypass_enable VPWR VGND clkgen.delay_155ns_2.genblk1\[3\].bypass_enable/X
+ clkgen.delay_155ns_2.genblk1\[3\].bypass_enable/B clkgen.delay_155ns_2.enablebuffer/X
+ VGND VPWR sky130_fd_sc_hd__and2_1
Xclkgen.delay_155ns_3.genblk1\[4\].bypass_enable VPWR VGND clkgen.delay_155ns_3.genblk1\[4\].bypass_enable/X
+ clkgen.delay_155ns_3.genblk1\[4\].bypass_enable/B clkgen.delay_155ns_3.enablebuffer/X
+ VGND VPWR sky130_fd_sc_hd__and2_1
XANTENNA_clkgen.delay_155ns_3.genblk1\[0\].control_invert_A dlycontrol3_in[0] VGND
+ VPWR VPWR VGND sky130_fd_sc_hd__diode_2
XANTENNA_sampledly04_A nsample_n_in VGND VPWR VPWR VGND sky130_fd_sc_hd__diode_2
Xedgedetect.dly_315ns_1.genblk1\[5\].dly_binary.genblk1\[3\].delay_unit VPWR edgedetect.dly_315ns_1.genblk1\[5\].dly_binary.genblk1\[3\].delay_unit/in
+ edgedetect.dly_315ns_1.genblk1\[5\].dly_binary.genblk1\[4\].delay_unit/in VGND VGND
+ VPWR sky130_mm_sc_hd_dlyPoly5ns
XFILLER_7_214 VGND VPWR VGND VPWR sky130_fd_sc_hd__decap_4
XFILLER_11_276 VGND VPWR VGND VPWR sky130_fd_sc_hd__decap_4
XFILLER_18_32 VGND VPWR VGND VPWR sky130_fd_sc_hd__decap_4
Xclkgen.delay_155ns_3.genblk1\[4\].dly_binary.genblk1\[1\].delay_unit VPWR clkgen.delay_155ns_3.genblk1\[4\].dly_binary.genblk1\[1\].delay_unit/in
+ clkgen.delay_155ns_3.genblk1\[4\].dly_binary.genblk1\[2\].delay_unit/in VGND VGND
+ VPWR sky130_mm_sc_hd_dlyPoly5ns
XFILLER_3_261 VGND VPWR VGND VPWR sky130_fd_sc_hd__decap_4
Xedgedetect.dly_315ns_1.genblk1\[1\].control_invert dlycontrol4_in[1] edgedetect.dly_315ns_1.genblk1\[1\].bypass_enable/B
+ VPWR VGND VGND VPWR sky130_fd_sc_hd__inv_2
XFILLER_0_275 VGND VPWR VGND VPWR sky130_fd_sc_hd__decap_4
XFILLER_8_331 VGND VPWR VGND VPWR sky130_fd_sc_hd__decap_4
Xedgedetect.dly_315ns_1.genblk1\[5\].dly_binary.genblk1\[8\].delay_unit VPWR edgedetect.dly_315ns_1.genblk1\[5\].dly_binary.genblk1\[8\].delay_unit/in
+ edgedetect.dly_315ns_1.genblk1\[5\].dly_binary.genblk1\[9\].delay_unit/in VGND VGND
+ VPWR sky130_mm_sc_hd_dlyPoly5ns
XFILLER_13_113 VGND VPWR VGND VPWR sky130_fd_sc_hd__decap_4
XFILLER_2_326 VGND VPWR VGND VPWR sky130_ef_sc_hd__decap_12
XANTENNA_clkgen.delay_155ns_1.genblk1\[4\].dly_binary.and_bypass_switch_A_N clkgen.delay_155ns_1.genblk1\[4\].bypass_enable/X
+ VGND VPWR VPWR VGND sky130_fd_sc_hd__diode_2
Xclkgen.delay_155ns_3.genblk1\[4\].dly_binary.genblk1\[6\].delay_unit VPWR clkgen.delay_155ns_3.genblk1\[4\].dly_binary.genblk1\[6\].delay_unit/in
+ clkgen.delay_155ns_3.genblk1\[4\].dly_binary.genblk1\[7\].delay_unit/in VGND VGND
+ VPWR sky130_mm_sc_hd_dlyPoly5ns
Xclkgen.delay_155ns_2.genblk1\[4\].dly_binary.genblk1\[12\].delay_unit VPWR clkgen.delay_155ns_2.genblk1\[4\].dly_binary.genblk1\[12\].delay_unit/in
+ clkgen.delay_155ns_2.genblk1\[4\].dly_binary.genblk1\[13\].delay_unit/in VGND VGND
+ VPWR sky130_mm_sc_hd_dlyPoly5ns
XFILLER_0_15 VGND VPWR VGND VPWR sky130_fd_sc_hd__decap_4
XFILLER_3_3 VPWR VGND VGND VPWR sky130_fd_sc_hd__decap_3
XFILLER_14_274 VGND VPWR VGND VPWR sky130_fd_sc_hd__decap_4
Xclkgen.delay_155ns_2.genblk1\[4\].dly_binary.genblk1\[0\].delay_unit VPWR clkgen.delay_155ns_2.genblk1\[4\].dly_binary.and_bypass_switch/X
+ clkgen.delay_155ns_2.genblk1\[4\].dly_binary.genblk1\[1\].delay_unit/in VGND VGND
+ VPWR sky130_mm_sc_hd_dlyPoly5ns
Xedgedetect.nor1 inbuf_2/X edgedetect.or1/A edgedetect.nor1/A VGND VPWR VGND VPWR
+ sky130_fd_sc_hd__nor2b_1
XFILLER_11_222 VGND VPWR VGND VPWR sky130_fd_sc_hd__decap_4
XFILLER_11_288 VGND VPWR VGND VPWR sky130_fd_sc_hd__decap_4
XFILLER_3_273 VGND VPWR VGND VPWR sky130_fd_sc_hd__decap_4
XFILLER_16_336 VGND VPWR VGND VPWR sky130_fd_sc_hd__decap_4
Xclkgen.delay_155ns_3.genblk1\[1\].control_invert dlycontrol3_in[1] clkgen.delay_155ns_3.genblk1\[1\].bypass_enable/B
+ VPWR VGND VGND VPWR sky130_fd_sc_hd__inv_2
XFILLER_13_306 VGND VPWR VGND VPWR sky130_fd_sc_hd__decap_4
Xedgedetect.dly_315ns_1.genblk1\[4\].dly_binary.genblk1\[3\].delay_unit VPWR edgedetect.dly_315ns_1.genblk1\[4\].dly_binary.genblk1\[3\].delay_unit/in
+ edgedetect.dly_315ns_1.genblk1\[4\].dly_binary.genblk1\[4\].delay_unit/in VGND VGND
+ VPWR sky130_mm_sc_hd_dlyPoly5ns
Xclkgen.delay_155ns_2.genblk1\[4\].dly_binary.genblk1\[5\].delay_unit VPWR clkgen.delay_155ns_2.genblk1\[4\].dly_binary.genblk1\[5\].delay_unit/in
+ clkgen.delay_155ns_2.genblk1\[4\].dly_binary.genblk1\[6\].delay_unit/in VGND VGND
+ VPWR sky130_mm_sc_hd_dlyPoly5ns
XFILLER_2_338 VPWR VGND VGND VPWR sky130_fd_sc_hd__decap_3
Xclkgen.delay_155ns_3.genblk1\[3\].dly_binary.genblk1\[1\].delay_unit VPWR clkgen.delay_155ns_3.genblk1\[3\].dly_binary.genblk1\[1\].delay_unit/in
+ clkgen.delay_155ns_3.genblk1\[3\].dly_binary.genblk1\[2\].delay_unit/in VGND VGND
+ VPWR sky130_mm_sc_hd_dlyPoly5ns
XFILLER_2_124 VGND VPWR VGND VPWR sky130_fd_sc_hd__decap_4
Xclkgen.delay_155ns_3.genblk1\[4\].dly_binary.genblk1\[10\].delay_unit VPWR clkgen.delay_155ns_3.genblk1\[4\].dly_binary.genblk1\[9\].delay_unit/out
+ clkgen.delay_155ns_3.genblk1\[4\].dly_binary.genblk1\[11\].delay_unit/in VGND VGND
+ VPWR sky130_mm_sc_hd_dlyPoly5ns
Xedgedetect.dly_315ns_1.genblk1\[5\].dly_binary.genblk1\[10\].delay_unit VPWR edgedetect.dly_315ns_1.genblk1\[5\].dly_binary.genblk1\[9\].delay_unit/out
+ edgedetect.dly_315ns_1.genblk1\[5\].dly_binary.genblk1\[11\].delay_unit/in VGND
+ VGND VPWR sky130_mm_sc_hd_dlyPoly5ns
Xedgedetect.dly_315ns_1.genblk1\[4\].dly_binary.genblk1\[8\].delay_unit VPWR edgedetect.dly_315ns_1.genblk1\[4\].dly_binary.genblk1\[8\].delay_unit/in
+ edgedetect.dly_315ns_1.genblk1\[4\].dly_binary.genblk1\[9\].delay_unit/in VGND VGND
+ VPWR sky130_mm_sc_hd_dlyPoly5ns
XFILLER_6_59 VPWR VGND VGND VPWR sky130_fd_sc_hd__decap_6
XANTENNA_edgedetect.dly_315ns_1.genblk1\[5\].bypass_enable_A edgedetect.dly_315ns_1.enablebuffer/X
+ VGND VPWR VPWR VGND sky130_fd_sc_hd__diode_2
XFILLER_3_285 VGND VPWR VGND VPWR sky130_fd_sc_hd__decap_4
Xclkgen.delay_155ns_3.genblk1\[3\].dly_binary.genblk1\[6\].delay_unit VPWR clkgen.delay_155ns_3.genblk1\[3\].dly_binary.genblk1\[6\].delay_unit/in
+ clkgen.delay_155ns_3.genblk1\[3\].dly_binary.genblk1\[7\].delay_unit/in VGND VGND
+ VPWR sky130_mm_sc_hd_dlyPoly5ns
Xedgedetect.dly_315ns_1.genblk1\[4\].dly_binary.genblk1\[11\].delay_unit VPWR edgedetect.dly_315ns_1.genblk1\[4\].dly_binary.genblk1\[11\].delay_unit/in
+ edgedetect.dly_315ns_1.genblk1\[4\].dly_binary.genblk1\[12\].delay_unit/in VGND
+ VGND VPWR sky130_mm_sc_hd_dlyPoly5ns
Xclkgen.delay_155ns_1.genblk1\[4\].dly_binary.genblk1\[4\].delay_unit VPWR clkgen.delay_155ns_1.genblk1\[4\].dly_binary.genblk1\[4\].delay_unit/in
+ clkgen.delay_155ns_1.genblk1\[4\].dly_binary.genblk1\[5\].delay_unit/in VGND VGND
+ VPWR sky130_mm_sc_hd_dlyPoly5ns
XFILLER_7_91 VPWR VGND VGND VPWR sky130_fd_sc_hd__decap_6
Xclkgen.delay_155ns_2.genblk1\[3\].dly_binary.genblk1\[0\].delay_unit VPWR clkgen.delay_155ns_2.genblk1\[3\].dly_binary.and_bypass_switch/X
+ clkgen.delay_155ns_2.genblk1\[3\].dly_binary.genblk1\[1\].delay_unit/in VGND VGND
+ VPWR sky130_mm_sc_hd_dlyPoly5ns
XANTENNA_edgedetect.dly_315ns_1.genblk1\[3\].dly_binary.and_bypass_switch_A_N edgedetect.dly_315ns_1.genblk1\[3\].bypass_enable/X
+ VGND VPWR VPWR VGND sky130_fd_sc_hd__diode_2
XFILLER_8_196 VGND VPWR VGND VPWR sky130_fd_sc_hd__decap_4
XFILLER_5_111 VGND VPWR VGND VPWR sky130_fd_sc_hd__decap_4
XFILLER_5_155 VGND VPWR VGND VPWR sky130_fd_sc_hd__decap_4
Xclkgen.delay_155ns_3.genblk1\[4\].dly_binary.genblk1\[15\].delay_unit VPWR clkgen.delay_155ns_3.genblk1\[4\].dly_binary.genblk1\[15\].delay_unit/in
+ clkgen.delay_155ns_3.genblk1\[4\].dly_binary.out_mux/A0 VGND VGND VPWR sky130_mm_sc_hd_dlyPoly5ns
XFILLER_18_207 VGND VPWR VGND VPWR sky130_fd_sc_hd__decap_4
Xedgedetect.dly_315ns_1.genblk1\[5\].dly_binary.genblk1\[15\].delay_unit VPWR edgedetect.dly_315ns_1.genblk1\[5\].dly_binary.genblk1\[15\].delay_unit/in
+ edgedetect.dly_315ns_1.genblk1\[5\].dly_binary.genblk1\[16\].delay_unit/in VGND
+ VGND VPWR sky130_mm_sc_hd_dlyPoly5ns
XFILLER_9_59 VPWR VGND VGND VPWR sky130_fd_sc_hd__decap_3
Xclkgen.nor1 clkgen.nor1/B_N clkgen.nor1/Y clkgen.nor1/A VGND VPWR VGND VPWR sky130_fd_sc_hd__nor2b_1
Xclkgen.delay_155ns_1.genblk1\[4\].dly_binary.genblk1\[9\].delay_unit VPWR clkgen.delay_155ns_1.genblk1\[4\].dly_binary.genblk1\[9\].delay_unit/in
+ clkgen.delay_155ns_1.genblk1\[4\].dly_binary.genblk1\[9\].delay_unit/out VGND VGND
+ VPWR sky130_mm_sc_hd_dlyPoly5ns
XANTENNA_sampledly02_A sample_n_in VGND VPWR VPWR VGND sky130_fd_sc_hd__diode_2
XFILLER_1_93 VGND VPWR VGND VPWR sky130_fd_sc_hd__decap_4
XFILLER_10_290 VGND VPWR VGND VPWR sky130_fd_sc_hd__decap_4
Xedgedetect.dly_315ns_1.genblk1\[3\].dly_binary.genblk1\[3\].delay_unit VPWR edgedetect.dly_315ns_1.genblk1\[3\].dly_binary.genblk1\[3\].delay_unit/in
+ edgedetect.dly_315ns_1.genblk1\[3\].dly_binary.genblk1\[4\].delay_unit/in VGND VGND
+ VPWR sky130_mm_sc_hd_dlyPoly5ns
XANTENNA_clkgen.delay_155ns_1.genblk1\[4\].dly_binary.and_bypass_switch_B clkgen.delay_155ns_1.genblk1\[3\].dly_binary.out_mux/X
+ VGND VPWR VPWR VGND sky130_fd_sc_hd__diode_2
Xclkgen.delay_155ns_2.genblk1\[3\].dly_binary.genblk1\[5\].delay_unit VPWR clkgen.delay_155ns_2.genblk1\[3\].dly_binary.genblk1\[5\].delay_unit/in
+ clkgen.delay_155ns_2.genblk1\[3\].dly_binary.genblk1\[6\].delay_unit/in VGND VGND
+ VPWR sky130_mm_sc_hd_dlyPoly5ns
XFILLER_6_16 VGND VPWR VGND VPWR sky130_fd_sc_hd__decap_4
XFILLER_3_297 VGND VPWR VGND VPWR sky130_fd_sc_hd__decap_4
XFILLER_19_187 VPWR VGND VGND VPWR sky130_fd_sc_hd__decap_3
Xclkgen.delay_155ns_1.genblk1\[2\].control_invert dlycontrol1_in[2] clkgen.delay_155ns_1.genblk1\[2\].bypass_enable/B
+ VPWR VGND VGND VPWR sky130_fd_sc_hd__inv_2
Xclkgen.delay_155ns_3.genblk1\[2\].dly_binary.genblk1\[1\].delay_unit VPWR clkgen.delay_155ns_3.genblk1\[2\].dly_binary.genblk1\[1\].delay_unit/in
+ clkgen.delay_155ns_3.genblk1\[2\].dly_binary.genblk1\[2\].delay_unit/in VGND VGND
+ VPWR sky130_mm_sc_hd_dlyPoly5ns
XFILLER_0_223 VPWR VGND VGND VPWR sky130_fd_sc_hd__decap_6
Xedgedetect.dly_315ns_1.genblk1\[5\].dly_binary.genblk1\[22\].delay_unit VPWR edgedetect.dly_315ns_1.genblk1\[5\].dly_binary.genblk1\[22\].delay_unit/in
+ edgedetect.dly_315ns_1.genblk1\[5\].dly_binary.genblk1\[23\].delay_unit/in VGND
+ VGND VPWR sky130_mm_sc_hd_dlyPoly5ns
XFILLER_16_124 VGND VPWR VGND VPWR sky130_fd_sc_hd__decap_4
XFILLER_5_304 VPWR VGND VGND VPWR sky130_fd_sc_hd__decap_6
XFILLER_12_59 VPWR VGND VGND VPWR sky130_fd_sc_hd__decap_6
XANTENNA_edgedetect.dly_315ns_1.enablebuffer_A enable_dlycontrol_in VGND VPWR VPWR
+ VGND sky130_fd_sc_hd__diode_2
XFILLER_14_211 VPWR VGND VGND VPWR sky130_fd_sc_hd__decap_6
XFILLER_1_3 VPWR VGND VGND VPWR sky130_fd_sc_hd__decap_3
Xclkgen.delay_155ns_1.genblk1\[3\].dly_binary.genblk1\[4\].delay_unit VPWR clkgen.delay_155ns_1.genblk1\[3\].dly_binary.genblk1\[4\].delay_unit/in
+ clkgen.delay_155ns_1.genblk1\[3\].dly_binary.genblk1\[5\].delay_unit/in VGND VGND
+ VPWR sky130_mm_sc_hd_dlyPoly5ns
XANTENNA_clkgen.delay_155ns_1.genblk1\[1\].control_invert_A dlycontrol1_in[1] VGND
+ VPWR VPWR VGND sky130_fd_sc_hd__diode_2
XANTENNA_clkgen.delay_155ns_2.enablebuffer_A enable_dlycontrol_in VGND VPWR VPWR VGND
+ sky130_fd_sc_hd__diode_2
XANTENNA_inbuf_3_A ndecision_finish_in VGND VPWR VPWR VGND sky130_fd_sc_hd__diode_2
XFILLER_19_325 VGND VPWR VGND VPWR sky130_fd_sc_hd__decap_4
Xedgedetect.dly_315ns_1.genblk1\[5\].dly_binary.genblk1\[27\].delay_unit VPWR edgedetect.dly_315ns_1.genblk1\[5\].dly_binary.genblk1\[27\].delay_unit/in
+ edgedetect.dly_315ns_1.genblk1\[5\].dly_binary.genblk1\[28\].delay_unit/in VGND
+ VGND VPWR sky130_mm_sc_hd_dlyPoly5ns
Xclkgen.delay_155ns_2.genblk1\[2\].dly_binary.genblk1\[0\].delay_unit VPWR clkgen.delay_155ns_2.genblk1\[2\].dly_binary.and_bypass_switch/X
+ clkgen.delay_155ns_2.genblk1\[2\].dly_binary.genblk1\[1\].delay_unit/in VGND VGND
+ VPWR sky130_mm_sc_hd_dlyPoly5ns
Xclkgen.clkdig_inverter clkgen.clkdig_inverter/A outbuf_1/A VPWR VGND VGND VPWR sky130_fd_sc_hd__inv_2
XFILLER_3_254 VGND VPWR VGND VPWR sky130_fd_sc_hd__decap_4
XFILLER_8_313 VGND VPWR VGND VPWR sky130_fd_sc_hd__decap_4
XFILLER_12_320 VGND VPWR VGND VPWR sky130_fd_sc_hd__decap_4
XPHY_0 VPWR VGND VGND VPWR sky130_fd_sc_hd__decap_3
XANTENNA_clkgen.delay_155ns_2.genblk1\[0\].control_invert_A dlycontrol2_in[0] VGND
+ VPWR VPWR VGND sky130_fd_sc_hd__diode_2
XFILLER_5_338 VPWR VGND VGND VPWR sky130_fd_sc_hd__decap_6
XFILLER_8_121 VPWR VGND VGND VPWR sky130_fd_sc_hd__decap_6
XFILLER_2_308 VGND VPWR VGND VPWR sky130_fd_sc_hd__decap_4
XFILLER_12_16 VGND VPWR VGND VPWR sky130_fd_sc_hd__decap_4
Xedgedetect.dly_315ns_1.genblk1\[2\].dly_binary.genblk1\[3\].delay_unit VPWR edgedetect.dly_315ns_1.genblk1\[2\].dly_binary.genblk1\[3\].delay_unit/in
+ edgedetect.dly_315ns_1.genblk1\[2\].dly_binary.out_mux/A0 VGND VGND VPWR sky130_mm_sc_hd_dlyPoly5ns
XFILLER_4_94 VPWR VGND VGND VPWR sky130_fd_sc_hd__decap_3
XFILLER_14_245 VGND VPWR VGND VPWR sky130_fd_sc_hd__decap_4
Xclkgen.delay_155ns_3.genblk1\[1\].dly_binary.genblk1\[1\].delay_unit VPWR clkgen.delay_155ns_3.genblk1\[1\].dly_binary.genblk1\[1\].delay_unit/in
+ clkgen.delay_155ns_3.genblk1\[1\].dly_binary.out_mux/A0 VGND VGND VPWR sky130_mm_sc_hd_dlyPoly5ns
XFILLER_18_15 VGND VPWR VGND VPWR sky130_fd_sc_hd__decap_4
XFILLER_6_274 VGND VPWR VGND VPWR sky130_fd_sc_hd__decap_4
XFILLER_19_337 VGND VPWR VGND VPWR sky130_fd_sc_hd__decap_4
XFILLER_3_244 VGND VPWR VGND VPWR sky130_fd_sc_hd__decap_4
XFILLER_19_156 VPWR VGND VGND VPWR sky130_fd_sc_hd__decap_3
XFILLER_16_307 VGND VPWR VGND VPWR sky130_fd_sc_hd__decap_4
XANTENNA_clkgen.delay_155ns_1.genblk1\[4\].dly_binary.out_mux_S clkgen.delay_155ns_1.genblk1\[4\].bypass_enable/X
+ VGND VPWR VPWR VGND sky130_fd_sc_hd__diode_2
XFILLER_0_214 VPWR VGND VGND VPWR sky130_fd_sc_hd__decap_3
XFILLER_8_325 VGND VPWR VGND VPWR sky130_fd_sc_hd__decap_4
XFILLER_12_332 VGND VPWR VGND VPWR sky130_fd_sc_hd__decap_4
XPHY_1 VPWR VGND VGND VPWR sky130_fd_sc_hd__decap_3
XFILLER_7_50 VGND VPWR VGND VPWR sky130_fd_sc_hd__decap_4
Xedgedetect.dly_315ns_1.genblk1\[0\].dly_binary.out_mux VGND VPWR edgedetect.dly_315ns_1.genblk1\[0\].bypass_enable/X
+ inbuf_2/X edgedetect.dly_315ns_1.genblk1\[0\].dly_binary.out_mux/A0 edgedetect.dly_315ns_1.genblk1\[0\].dly_binary.out_mux/X
+ VGND VPWR sky130_fd_sc_hd__mux2_1
XFILLER_15_192 VGND VPWR VGND VPWR sky130_fd_sc_hd__decap_4
Xedgedetect.dly_315ns_1.genblk1\[0\].dly_binary.and_bypass_switch edgedetect.dly_315ns_1.genblk1\[0\].dly_binary.and_bypass_switch/X
+ edgedetect.dly_315ns_1.genblk1\[0\].bypass_enable/X inbuf_2/X VGND VPWR VGND VPWR
+ sky130_fd_sc_hd__and2b_1
XANTENNA_edgedetect.dly_315ns_1.genblk1\[0\].bypass_enable_A edgedetect.dly_315ns_1.enablebuffer/X
+ VGND VPWR VPWR VGND sky130_fd_sc_hd__diode_2
Xedgedetect.dly_315ns_1.genblk1\[2\].dly_binary.out_mux VGND VPWR edgedetect.dly_315ns_1.genblk1\[2\].bypass_enable/X
+ edgedetect.dly_315ns_1.genblk1\[1\].dly_binary.out_mux/X edgedetect.dly_315ns_1.genblk1\[2\].dly_binary.out_mux/A0
+ edgedetect.dly_315ns_1.genblk1\[2\].dly_binary.out_mux/X VGND VPWR sky130_fd_sc_hd__mux2_1
Xinbuf_1 VGND VPWR inbuf_1/X ena_in VGND VPWR sky130_fd_sc_hd__buf_1
XFILLER_12_140 VGND VPWR VGND VPWR sky130_fd_sc_hd__decap_4
Xedgedetect.dly_315ns_1.genblk1\[4\].dly_binary.out_mux VGND VPWR edgedetect.dly_315ns_1.genblk1\[4\].bypass_enable/X
+ edgedetect.dly_315ns_1.genblk1\[3\].dly_binary.out_mux/X edgedetect.dly_315ns_1.genblk1\[4\].dly_binary.out_mux/A0
+ edgedetect.dly_315ns_1.genblk1\[4\].dly_binary.out_mux/X VGND VPWR sky130_fd_sc_hd__mux2_1
XFILLER_5_125 VGND VPWR VGND VPWR sky130_fd_sc_hd__decap_4
XFILLER_4_62 VGND VPWR VGND VPWR sky130_fd_sc_hd__decap_4
Xclkgen.delay_155ns_2.genblk1\[1\].dly_binary.genblk1\[0\].delay_unit VPWR clkgen.delay_155ns_2.genblk1\[1\].dly_binary.and_bypass_switch/X
+ clkgen.delay_155ns_2.genblk1\[1\].dly_binary.genblk1\[1\].delay_unit/in VGND VGND
+ VPWR sky130_mm_sc_hd_dlyPoly5ns
XFILLER_17_276 VGND VPWR VGND VPWR sky130_fd_sc_hd__decap_4
Xsampledly31 VPWR VGND sampledly31/A outbuf_3/A VGND VPWR sky130_fd_sc_hd__dlymetal6s6s_1
XFILLER_14_202 VGND VPWR VGND VPWR sky130_fd_sc_hd__decap_4
Xclkgen.delay_155ns_2.genblk1\[3\].control_invert dlycontrol2_in[3] clkgen.delay_155ns_2.genblk1\[3\].bypass_enable/B
+ VPWR VGND VGND VPWR sky130_fd_sc_hd__inv_2
Xedgedetect.dly_315ns_1.genblk1\[2\].bypass_enable VPWR VGND edgedetect.dly_315ns_1.genblk1\[2\].bypass_enable/X
+ edgedetect.dly_315ns_1.genblk1\[2\].bypass_enable/B edgedetect.dly_315ns_1.enablebuffer/X
+ VGND VPWR sky130_fd_sc_hd__and2_1
XFILLER_1_63 VGND VPWR VGND VPWR sky130_fd_sc_hd__decap_4
Xclkgen.delay_155ns_1.genblk1\[4\].dly_binary.genblk1\[10\].delay_unit VPWR clkgen.delay_155ns_1.genblk1\[4\].dly_binary.genblk1\[9\].delay_unit/out
+ clkgen.delay_155ns_1.genblk1\[4\].dly_binary.genblk1\[11\].delay_unit/in VGND VGND