* XSpice netlist created from SPICE and liberty sources by spi2xspice.py
* NGSPICE file created from adc_core_digital.ext - technology: sky130A
.subckt adc_core_digital a_VGND a_VPWR a_clk_dig_in a_comparator_in a_config_1_in_0_ a_config_1_in_10_ a_config_1_in_11_ a_config_1_in_12_ a_config_1_in_13_ a_config_1_in_14_ a_config_1_in_15_ a_config_1_in_1_ a_config_1_in_2_ a_config_1_in_3_ a_config_1_in_4_ a_config_1_in_5_ a_config_1_in_6_ a_config_1_in_7_ a_config_1_in_8_ a_config_1_in_9_ a_config_2_in_0_ a_config_2_in_10_ a_config_2_in_11_ a_config_2_in_12_ a_config_2_in_13_ a_config_2_in_14_ a_config_2_in_15_ a_config_2_in_1_ a_config_2_in_2_ a_config_2_in_3_ a_config_2_in_4_ a_config_2_in_5_ a_config_2_in_6_ a_config_2_in_7_ a_config_2_in_8_ a_config_2_in_9_ a_conv_finished_out a_enable_loop_out a_nmatrix_bincap_out_n_0_ a_nmatrix_bincap_out_n_1_ a_nmatrix_bincap_out_n_2_ a_nmatrix_c0_out_n a_nmatrix_col_out_n_0_ a_nmatrix_col_out_n_10_ a_nmatrix_col_out_n_11_ a_nmatrix_col_out_n_12_ a_nmatrix_col_out_n_13_ a_nmatrix_col_out_n_14_ a_nmatrix_col_out_n_15_ a_nmatrix_col_out_n_16_ a_nmatrix_col_out_n_17_ a_nmatrix_col_out_n_18_ a_nmatrix_col_out_n_19_ a_nmatrix_col_out_n_1_ a_nmatrix_col_out_n_20_ a_nmatrix_col_out_n_21_ a_nmatrix_col_out_n_22_ a_nmatrix_col_out_n_23_ a_nmatrix_col_out_n_24_ a_nmatrix_col_out_n_25_ a_nmatrix_col_out_n_26_ a_nmatrix_col_out_n_27_ a_nmatrix_col_out_n_28_ a_nmatrix_col_out_n_29_ a_nmatrix_col_out_n_2_ a_nmatrix_col_out_n_30_ a_nmatrix_col_out_n_31_ a_nmatrix_col_out_n_3_ a_nmatrix_col_out_n_4_ a_nmatrix_col_out_n_5_ a_nmatrix_col_out_n_6_ a_nmatrix_col_out_n_7_ a_nmatrix_col_out_n_8_ a_nmatrix_col_out_n_9_ a_nmatrix_row_out_n_0_ a_nmatrix_row_out_n_10_ a_nmatrix_row_out_n_11_ a_nmatrix_row_out_n_12_ a_nmatrix_row_out_n_13_ a_nmatrix_row_out_n_14_ a_nmatrix_row_out_n_15_ a_nmatrix_row_out_n_1_ a_nmatrix_row_out_n_2_ a_nmatrix_row_out_n_3_ a_nmatrix_row_out_n_4_ a_nmatrix_row_out_n_5_ a_nmatrix_row_out_n_6_ a_nmatrix_row_out_n_7_ a_nmatrix_row_out_n_8_ a_nmatrix_row_out_n_9_ a_nmatrix_rowon_out_n_0_ a_nmatrix_rowon_out_n_10_ a_nmatrix_rowon_out_n_11_ a_nmatrix_rowon_out_n_12_ a_nmatrix_rowon_out_n_13_ a_nmatrix_rowon_out_n_14_ a_nmatrix_rowon_out_n_15_ a_nmatrix_rowon_out_n_1_ a_nmatrix_rowon_out_n_2_ a_nmatrix_rowon_out_n_3_ a_nmatrix_rowon_out_n_4_ a_nmatrix_rowon_out_n_5_ a_nmatrix_rowon_out_n_6_ a_nmatrix_rowon_out_n_7_ a_nmatrix_rowon_out_n_8_ a_nmatrix_rowon_out_n_9_ a_pmatrix_bincap_out_n_0_ a_pmatrix_bincap_out_n_1_ a_pmatrix_bincap_out_n_2_ a_pmatrix_c0_out_n a_pmatrix_col_out_n_0_ a_pmatrix_col_out_n_10_ a_pmatrix_col_out_n_11_ a_pmatrix_col_out_n_12_ a_pmatrix_col_out_n_13_ a_pmatrix_col_out_n_14_ a_pmatrix_col_out_n_15_ a_pmatrix_col_out_n_16_ a_pmatrix_col_out_n_17_ a_pmatrix_col_out_n_18_ a_pmatrix_col_out_n_19_ a_pmatrix_col_out_n_1_ a_pmatrix_col_out_n_20_ a_pmatrix_col_out_n_21_ a_pmatrix_col_out_n_22_ a_pmatrix_col_out_n_23_ a_pmatrix_col_out_n_24_ a_pmatrix_col_out_n_25_ a_pmatrix_col_out_n_26_ a_pmatrix_col_out_n_27_ a_pmatrix_col_out_n_28_ a_pmatrix_col_out_n_29_ a_pmatrix_col_out_n_2_ a_pmatrix_col_out_n_30_ a_pmatrix_col_out_n_31_ a_pmatrix_col_out_n_3_ a_pmatrix_col_out_n_4_ a_pmatrix_col_out_n_5_ a_pmatrix_col_out_n_6_ a_pmatrix_col_out_n_7_ a_pmatrix_col_out_n_8_ a_pmatrix_col_out_n_9_ a_pmatrix_row_out_n_0_ a_pmatrix_row_out_n_10_ a_pmatrix_row_out_n_11_ a_pmatrix_row_out_n_12_ a_pmatrix_row_out_n_13_ a_pmatrix_row_out_n_14_ a_pmatrix_row_out_n_15_ a_pmatrix_row_out_n_1_ a_pmatrix_row_out_n_2_ a_pmatrix_row_out_n_3_ a_pmatrix_row_out_n_4_ a_pmatrix_row_out_n_5_ a_pmatrix_row_out_n_6_ a_pmatrix_row_out_n_7_ a_pmatrix_row_out_n_8_ a_pmatrix_row_out_n_9_ a_pmatrix_rowon_out_n_0_ a_pmatrix_rowon_out_n_10_ a_pmatrix_rowon_out_n_11_ a_pmatrix_rowon_out_n_12_ a_pmatrix_rowon_out_n_13_ a_pmatrix_rowon_out_n_14_ a_pmatrix_rowon_out_n_15_ a_pmatrix_rowon_out_n_1_ a_pmatrix_rowon_out_n_2_ a_pmatrix_rowon_out_n_3_ a_pmatrix_rowon_out_n_4_ a_pmatrix_rowon_out_n_5_ a_pmatrix_rowon_out_n_6_ a_pmatrix_rowon_out_n_7_ a_pmatrix_rowon_out_n_8_ a_pmatrix_rowon_out_n_9_ a_result_out_0_ a_result_out_10_ a_result_out_11_ a_result_out_12_ a_result_out_13_ a_result_out_14_ a_result_out_15_ a_result_out_1_ a_result_out_2_ a_result_out_3_ a_result_out_4_ a_result_out_5_ a_result_out_6_ a_result_out_7_ a_result_out_8_ a_result_out_9_ a_rst_n a_sample_matrix_out a_sample_matrix_out_n a_sample_switch_out a_sample_switch_out_n
A_2037_ _2037_/D _2042_/CLK NULL ~fanout170/X _2037_/Q NULL ddflop
A_2106_ [_2106_/A] _2106_/X d_lut_sky130_fd_sc_hd__buf_2
A_1270_ [_1749_/C] _1729_/B d_lut_sky130_fd_sc_hd__inv_2
A_1606_ [_1606_/A _1626_/A] _1897_/A d_lut_sky130_fd_sc_hd__and2_2
A_0985_ [_1123_/A _1232_/C] _1145_/B d_lut_sky130_fd_sc_hd__xnor2_2
A_1537_ [_1538_/B _1538_/C _2059_/Q] _1537_/X d_lut_sky130_fd_sc_hd__o21a_2
A_1399_ [_1399_/A _1729_/A] _1406_/C d_lut_sky130_fd_sc_hd__nor2_2
A_1468_ [_1471_/B _1405_/B _1467_/Y _1408_/A] _1468_/X d_lut_sky130_fd_sc_hd__a2bb2o_2
A_1322_ [_1408_/A _1314_/Y _1321_/Y] _1322_/Y d_lut_sky130_fd_sc_hd__a21oi_4
A_1253_ [_1222_/X _1264_/B _1264_/A] _1253_/X d_lut_sky130_fd_sc_hd__o21a_2
A_1184_ [_1233_/A _1154_/X _1183_/X _1138_/D] _1226_/B d_lut_sky130_fd_sc_hd__o31a_2
A_0968_ [_1994_/Q _1997_/Q _1151_/C _0968_/D] _0968_/X d_lut_sky130_fd_sc_hd__or4_4
A_1871_ [_1869_/X _1870_/X _1513_/S] _1871_/X d_lut_sky130_fd_sc_hd__o21a_2
A_1940_ [_1940_/A] _2056_/D d_lut_sky130_fd_sc_hd__buf_1
A_1305_ [_1469_/A _1446_/B _1460_/B] _1305_/X d_lut_sky130_fd_sc_hd__and3_2
A_1236_ [_1203_/A _1203_/B _1226_/A _1226_/B _1212_/A] _1264_/A d_lut_sky130_fd_sc_hd__o41a_4
A_1167_ [_1165_/X _1166_/B _1149_/X _1166_/X _1162_/B] _1317_/B d_lut_sky130_fd_sc_hd__a221o_2
A_1098_ [_1104_/A _1122_/B _1151_/C _1233_/C] _1098_/X d_lut_sky130_fd_sc_hd__or4_2
A_1021_ [_1262_/B _1262_/C _1238_/C _1019_/X _1020_/X] _1148_/A d_lut_sky130_fd_sc_hd__o32a_4
A_1785_ [_1785_/A] _1988_/D d_lut_sky130_fd_sc_hd__buf_1
A_1854_ [_1906_/A _2006_/D _2026_/D] _1854_/X d_lut_sky130_fd_sc_hd__o21a_2
A_1923_ [_2022_/D _1923_/B] _1923_/X d_lut_sky130_fd_sc_hd__or2_2
A_1219_ [_1219_/A] _1219_/Y d_lut_sky130_fd_sc_hd__inv_2
A_1570_ [_1665_/A _1836_/C] _1570_/Y d_lut_sky130_fd_sc_hd__nand2_2
A_2053_ _2053_/D _2059_/CLK NULL ~fanout167/X _2053_/Q NULL ddflop
A_1004_ [_0929_/B _1003_/X input2/X _1003_/A] _1110_/S d_lut_sky130_fd_sc_hd__a2bb2o_2
A_1768_ [_2026_/D _1768_/B] _1982_/D d_lut_sky130_fd_sc_hd__nor2_2
A_1906_ [_1906_/A _2019_/D _1906_/C _1906_/D] _1906_/X d_lut_sky130_fd_sc_hd__and4_2
A_1837_ [_2009_/D _1836_/X _1929_/S] _1837_/X d_lut_sky130_fd_sc_hd__mux2_1
A_1699_ [_1861_/B _1840_/C] _1751_/B d_lut_sky130_fd_sc_hd__nor2_2
Aoutput31 [_1461_/X] nmatrix_col_out_n_24_ d_lut_sky130_fd_sc_hd__buf_4
Aoutput42 [_1425_/X] nmatrix_col_out_n_5_ d_lut_sky130_fd_sc_hd__buf_4
Aoutput75 [_2082_/X] nmatrix_rowon_out_n_8_ d_lut_sky130_fd_sc_hd__buf_4
Aoutput64 [_2085_/X] nmatrix_rowon_out_n_11_ d_lut_sky130_fd_sc_hd__buf_4
Aoutput20 [_1443_/X] nmatrix_col_out_n_14_ d_lut_sky130_fd_sc_hd__buf_4
Aoutput53 [_2074_/A] nmatrix_row_out_n_1_ d_lut_sky130_fd_sc_hd__buf_4
Aoutput86 [_1371_/Y] pmatrix_col_out_n_15_ d_lut_sky130_fd_sc_hd__buf_4
Aoutput97 [_1398_/X] pmatrix_col_out_n_25_ d_lut_sky130_fd_sc_hd__buf_4
A_1622_ [_1665_/A _1621_/X _2017_/Q] _1622_/Y d_lut_sky130_fd_sc_hd__a21boi_2
A_1484_ [_1644_/B] _1869_/B d_lut_sky130_fd_sc_hd__buf_8
A_1553_ [_1553_/A _1612_/B _2061_/Q] _1553_/X d_lut_sky130_fd_sc_hd__or3b_2
A_2036_ _2036_/D _2039_/CLK NULL ~fanout166/X _2036_/Q NULL ddflop
A_2105_ [_2105_/A] _2105_/X d_lut_sky130_fd_sc_hd__buf_1
A_0984_ [_2002_/Q] _1232_/C d_lut_sky130_fd_sc_hd__buf_6
A_1536_ [_1533_/X _1535_/Y _1836_/A] _1850_/B d_lut_sky130_fd_sc_hd__a21o_2
A_1605_ [_1605_/A _1605_/B] _1626_/A d_lut_sky130_fd_sc_hd__nand2_2
A_1467_ [_1469_/A _1409_/B _1343_/A] _1467_/Y d_lut_sky130_fd_sc_hd__o21ai_2
A_1398_ [_1408_/B _1460_/B _1396_/Y _1397_/Y] _1398_/X d_lut_sky130_fd_sc_hd__a211o_2
A_2019_ _2019_/D _2042_/CLK NULL ~fanout170/X _2019_/Q NULL ddflop
A_1321_ [_1343_/A _1405_/B _1409_/B] _1321_/Y d_lut_sky130_fd_sc_hd__a21oi_4
A_1252_ [_1222_/X _1242_/A _1264_/B] _1252_/X d_lut_sky130_fd_sc_hd__o21a_2
A_1183_ [_1262_/B _1238_/C _1119_/X _1157_/B] _1183_/X d_lut_sky130_fd_sc_hd__o22a_2
A_0967_ [_1995_/Q _1996_/Q] _0968_/D d_lut_sky130_fd_sc_hd__xnor2_2
A_1519_ [_1524_/A _1519_/B] _1538_/B d_lut_sky130_fd_sc_hd__and2_2
A_1870_ [_1870_/A _1870_/B _1870_/C _1870_/D] _1870_/X d_lut_sky130_fd_sc_hd__and4_2
A_1235_ [_1973_/Q] _1235_/Y d_lut_sky130_fd_sc_hd__inv_2
A_1166_ [_1166_/A _1166_/B _1166_/C] _1166_/X d_lut_sky130_fd_sc_hd__and3_2
A_1304_ [_1350_/B _1390_/A] _1460_/B d_lut_sky130_fd_sc_hd__nor2_8
A_1097_ [_1967_/Q] _1104_/A d_lut_sky130_fd_sc_hd__inv_2
A_1999_ _1999_/D _2005_/CLK NULL ~fanout176/X _1999_/Q NULL ddflop
A_1020_ [_1122_/B _1151_/C] _1020_/X d_lut_sky130_fd_sc_hd__or2_2
A_1922_ [_2040_/Q _1831_/B _1916_/Y _1921_/X] _2040_/D d_lut_sky130_fd_sc_hd__a211o_2
A_1784_ [_1917_/B input7/X _1784_/S] _1785_/A d_lut_sky130_fd_sc_hd__mux2_1
A_1853_ [_1853_/A _1853_/B] _1853_/X d_lut_sky130_fd_sc_hd__or2_2
A_1218_ [_1218_/A] _1973_/D d_lut_sky130_fd_sc_hd__buf_1
A_1149_ [_1220_/B _1147_/X _1148_/X _1115_/X] _1149_/X d_lut_sky130_fd_sc_hd__o22a_2
A_1003_ [_1003_/A _1003_/B _1003_/C] _1003_/X d_lut_sky130_fd_sc_hd__or3_2
A_2052_ _2052_/D _2065_/CLK NULL ~fanout174/X _2052_/Q NULL ddflop
A_1905_ [_2017_/D _1920_/B _1889_/B _2021_/D _1904_/X] _1905_/X d_lut_sky130_fd_sc_hd__o221a_2
A_1767_ [_1982_/Q _1769_/B] _1768_/B d_lut_sky130_fd_sc_hd__xnor2_2
A_1698_ [_1904_/C _1904_/D] _1840_/C d_lut_sky130_fd_sc_hd__and2_2
A_1836_ [_1836_/A _1836_/B _1836_/C _1839_/A] _1836_/X d_lut_sky130_fd_sc_hd__or4b_2
Aoutput54 [_2075_/A] nmatrix_row_out_n_2_ d_lut_sky130_fd_sc_hd__buf_4
Aoutput10 [_2026_/Q] conv_finished_out d_lut_sky130_fd_sc_hd__buf_4
Aoutput43 [_1426_/X] nmatrix_col_out_n_6_ d_lut_sky130_fd_sc_hd__buf_4
Aoutput21 [_1444_/Y] nmatrix_col_out_n_15_ d_lut_sky130_fd_sc_hd__buf_4
Aoutput32 [_1462_/X] nmatrix_col_out_n_25_ d_lut_sky130_fd_sc_hd__buf_4
Aoutput65 [_2086_/X] nmatrix_rowon_out_n_12_ d_lut_sky130_fd_sc_hd__buf_4
Aoutput76 [_2083_/X] nmatrix_rowon_out_n_9_ d_lut_sky130_fd_sc_hd__buf_4
Aoutput98 [_1401_/X] pmatrix_col_out_n_26_ d_lut_sky130_fd_sc_hd__buf_4
Aoutput87 [_1373_/Y] pmatrix_col_out_n_16_ d_lut_sky130_fd_sc_hd__buf_4
A_1621_ [_1621_/A _2016_/Q _2064_/Q _1621_/D] _1621_/X d_lut_sky130_fd_sc_hd__or4_2
A_1552_ [_1551_/Y _2014_/Q _1552_/S] _1553_/A d_lut_sky130_fd_sc_hd__mux2_1
A_1483_ [_1478_/X _1697_/A _1906_/A] _1644_/B d_lut_sky130_fd_sc_hd__o21a_2
A_2104_ [_2104_/A] _2104_/X d_lut_sky130_fd_sc_hd__buf_2
A_2035_ _2035_/D _2042_/CLK NULL ~fanout170/X _2035_/Q NULL ddflop
A_1819_ [_1819_/A] _1831_/B d_lut_sky130_fd_sc_hd__buf_4
A_0983_ [_2005_/Q _2004_/Q _1232_/B] _0988_/B d_lut_sky130_fd_sc_hd__or3_2
A_1535_ [_2059_/Q _1893_/B] _1535_/Y d_lut_sky130_fd_sc_hd__nand2_2
A_1604_ [_2061_/Q _2014_/Q _2062_/Q _2015_/Q] _1605_/B d_lut_sky130_fd_sc_hd__o22ai_2
A_1397_ [_1706_/D _1423_/A _1405_/B] _1397_/Y d_lut_sky130_fd_sc_hd__o21bai_2
A_1466_ [_1451_/A _1706_/D _1314_/Y _1460_/Y _1408_/A] _1466_/X d_lut_sky130_fd_sc_hd__a311o_2
A_2018_ _2018_/D _2024_/CLK NULL ~fanout171/X _2018_/Q NULL ddflop
A_1320_ [_1320_/A] _1405_/B d_lut_sky130_fd_sc_hd__buf_6
A_1251_ [_1974_/Q _1234_/B _1250_/X] _1264_/B d_lut_sky130_fd_sc_hd__o21ai_2
A_1182_ [_1201_/A _1201_/B] _1193_/A d_lut_sky130_fd_sc_hd__nor2_2
A_0966_ [_1999_/Q _1998_/Q _2001_/Q _2000_/Q] _1151_/C d_lut_sky130_fd_sc_hd__or4_4
A_1518_ [_2010_/Q _2057_/Q _2011_/Q _2058_/Q] _1519_/B d_lut_sky130_fd_sc_hd__a22o_2
A_1449_ [_1451_/A _1446_/B _1451_/B _1366_/X] _1449_/X d_lut_sky130_fd_sc_hd__a31o_2
A_1303_ [_1404_/C] _1446_/B d_lut_sky130_fd_sc_hd__buf_4
A_1234_ [_1974_/Q _1234_/B] _1242_/A d_lut_sky130_fd_sc_hd__xnor2_2
A_1165_ [_1165_/A _1173_/C _1165_/C] _1165_/X d_lut_sky130_fd_sc_hd__or3_2
A_1096_ [_1040_/D _1094_/Y _1095_/Y] _1166_/A d_lut_sky130_fd_sc_hd__a21oi_4
A_0949_ [_2043_/Q _0949_/B] _2043_/D d_lut_sky130_fd_sc_hd__nand2_2
A_1998_ _1998_/D _2005_/CLK NULL ~fanout176/X _1998_/Q NULL ddflop
A_1921_ [_2017_/D _1928_/B _1919_/X _1920_/X _1858_/A] _1921_/X d_lut_sky130_fd_sc_hd__o221a_2
A_1852_ [_2014_/D _1849_/X _1850_/Y _1851_/X _1861_/B] _1853_/B d_lut_sky130_fd_sc_hd__a221o_2
A_1783_ [_1783_/A] _1987_/D d_lut_sky130_fd_sc_hd__buf_1
A_1217_ [_2104_/A _1217_/B] _1218_/A d_lut_sky130_fd_sc_hd__and2_2
A_1079_ [_1105_/B _1105_/C _1105_/A] _1198_/A d_lut_sky130_fd_sc_hd__a21o_2
A_1148_ [_1148_/A _1148_/B _1148_/C _1148_/D] _1148_/X d_lut_sky130_fd_sc_hd__and4_2
A_2051_ _2051_/D _2066_/CLK NULL ~fanout173/X _2051_/Q NULL ddflop
A_1002_ [_2066_/Q _0997_/X _1001_/X] _1003_/C d_lut_sky130_fd_sc_hd__a21oi_2
A_1904_ [_1904_/A _1906_/A _1904_/C _1904_/D] _1904_/X d_lut_sky130_fd_sc_hd__and4_2
A_1835_ [_1836_/B _1834_/X _1786_/S _1836_/C] _1835_/X d_lut_sky130_fd_sc_hd__o2bb2a_2
A_1697_ [_1697_/A _1697_/B _1697_/C _1697_/D] _1904_/D d_lut_sky130_fd_sc_hd__and4_2
A_1766_ [_1981_/Q _1864_/A _1766_/C] _1769_/B d_lut_sky130_fd_sc_hd__and3_2
Aoutput55 [_2076_/A] nmatrix_row_out_n_3_ d_lut_sky130_fd_sc_hd__buf_4
Aoutput44 [_1428_/X] nmatrix_col_out_n_7_ d_lut_sky130_fd_sc_hd__buf_4
Aoutput99 [_1402_/X] pmatrix_col_out_n_27_ d_lut_sky130_fd_sc_hd__buf_4
Aoutput66 [_2087_/X] nmatrix_rowon_out_n_13_ d_lut_sky130_fd_sc_hd__buf_4
Aoutput11 [_2106_/A] enable_loop_out d_lut_sky130_fd_sc_hd__buf_4
Aoutput77 [_0993_/A] pmatrix_bincap_out_n_0_ d_lut_sky130_fd_sc_hd__buf_4
Aoutput88 [_1377_/X] pmatrix_col_out_n_17_ d_lut_sky130_fd_sc_hd__buf_4
Aoutput33 [_1465_/X] nmatrix_col_out_n_26_ d_lut_sky130_fd_sc_hd__buf_4
Aoutput22 [_1445_/X] nmatrix_col_out_n_16_ d_lut_sky130_fd_sc_hd__buf_4
A_1482_ [_1482_/A] _1906_/A d_lut_sky130_fd_sc_hd__buf_4
A_1620_ [_1606_/A _1615_/Y _1632_/B _1619_/X] _1620_/X d_lut_sky130_fd_sc_hd__a31o_2
A_1551_ [_1870_/A _2014_/Q] _1551_/Y d_lut_sky130_fd_sc_hd__nand2_2
A_2103_ [_2103_/A] _2103_/X d_lut_sky130_fd_sc_hd__buf_1
A_2034_ _2034_/D _2034_/CLK NULL ~fanout165/X _2034_/Q NULL ddflop
A_1818_ [_1818_/A] _2005_/D d_lut_sky130_fd_sc_hd__buf_1
A_1749_ [_1749_/A _1749_/B _1749_/C _1749_/D] _1750_/A d_lut_sky130_fd_sc_hd__or4_2
A_0982_ [_2003_/Q] _1232_/B d_lut_sky130_fd_sc_hd__buf_4
A_1534_ [_1612_/B] _1893_/B d_lut_sky130_fd_sc_hd__buf_6
A_1603_ [_1543_/Y _1545_/X _1547_/Y _1538_/C _1602_/X] _1606_/A d_lut_sky130_fd_sc_hd__a221o_4
A_1465_ [_1451_/A _1463_/X _1464_/X _1460_/Y] _1465_/X d_lut_sky130_fd_sc_hd__a211o_2
A_2017_ _2017_/D _2024_/CLK NULL ~fanout171/X _2017_/Q NULL ddflop
A_1396_ [_1706_/D _1408_/B _1429_/B] _1396_/Y d_lut_sky130_fd_sc_hd__nor3_2
A_1250_ [_1974_/Q _1234_/B _1973_/Q] _1250_/X d_lut_sky130_fd_sc_hd__a21o_2
A_1181_ [_1262_/C _1181_/B _1181_/C] _1201_/B d_lut_sky130_fd_sc_hd__nor3_4
A_0965_ [_1123_/A _1123_/C _0965_/C _1157_/C] _0965_/X d_lut_sky130_fd_sc_hd__or4_4
A_1517_ [_2011_/Q _2058_/Q] _1524_/A d_lut_sky130_fd_sc_hd__or2_2
A_1448_ [_1448_/A] _1448_/X d_lut_sky130_fd_sc_hd__buf_1
A_1379_ [_1749_/A _1404_/C _1381_/B _1386_/B] _1379_/X d_lut_sky130_fd_sc_hd__a31o_2
A_1302_ [_1311_/A _1311_/B] _1404_/C d_lut_sky130_fd_sc_hd__nand2_4
A_1233_ [_1233_/A _1262_/B _1233_/C _1233_/D] _1234_/B d_lut_sky130_fd_sc_hd__nor4_4
A_1095_ [_0965_/X _0968_/X _1105_/A _1223_/A] _1095_/Y d_lut_sky130_fd_sc_hd__a211oi_4
A_1164_ [_1149_/X _1162_/X _1163_/X] _1317_/A d_lut_sky130_fd_sc_hd__a21oi_2
A_1997_ _1997_/D _2005_/CLK NULL ~fanout176/X _1997_/Q NULL ddflop
A_0948_ [_0946_/Y _0947_/X _0949_/B] _2052_/D d_lut_sky130_fd_sc_hd__o21a_2
A_1851_ [_1917_/B _2008_/D _1829_/B _1929_/S] _1851_/X d_lut_sky130_fd_sc_hd__o211a_2
A_1920_ [_2023_/D _1920_/B] _1920_/X d_lut_sky130_fd_sc_hd__and2_2
A_1782_ [_1929_/S input6/X _1784_/S] _1783_/A d_lut_sky130_fd_sc_hd__mux2_1
A_1216_ [_1973_/Q _1749_/A _1216_/S] _1217_/B d_lut_sky130_fd_sc_hd__mux2_1
A_1147_ [_1148_/A _1148_/B _1148_/C _1148_/D] _1147_/X d_lut_sky130_fd_sc_hd__a22o_2
A_1078_ [_1105_/A _1105_/B _1105_/C] _1211_/A d_lut_sky130_fd_sc_hd__nand3_2
A_2050_ _2050_/D _2067_/CLK NULL ~fanout175/X _2050_/Q NULL ddflop
A_1001_ [_0997_/S input2/X _0996_/X _1000_/X] _1001_/X d_lut_sky130_fd_sc_hd__a31o_2
A_1765_ [_1981_/Q _1882_/A _1751_/B _1764_/X] _1981_/D d_lut_sky130_fd_sc_hd__a22o_2
A_1903_ [_1917_/B _1877_/A _1829_/B _1929_/S] _1903_/Y d_lut_sky130_fd_sc_hd__o211ai_2
A_1834_ [_1836_/C _1869_/B _1839_/A _1882_/A] _1834_/X d_lut_sky130_fd_sc_hd__a31o_2
A_1696_ [_1980_/Q _1928_/B] _1697_/D d_lut_sky130_fd_sc_hd__xor2_2
Aoutput23 [_1448_/X] nmatrix_col_out_n_17_ d_lut_sky130_fd_sc_hd__buf_4
Aoutput12 [_1007_/A] nmatrix_bincap_out_n_0_ d_lut_sky130_fd_sc_hd__buf_4
Aoutput34 [_1466_/X] nmatrix_col_out_n_27_ d_lut_sky130_fd_sc_hd__buf_4
Aoutput45 [_1431_/X] nmatrix_col_out_n_8_ d_lut_sky130_fd_sc_hd__buf_4
Aoutput89 [_1380_/X] pmatrix_col_out_n_18_ d_lut_sky130_fd_sc_hd__buf_4
Aoutput78 [_1032_/A] pmatrix_bincap_out_n_1_ d_lut_sky130_fd_sc_hd__buf_4
Aoutput67 [_2088_/X] nmatrix_rowon_out_n_14_ d_lut_sky130_fd_sc_hd__buf_4
Aoutput56 [_2077_/A] nmatrix_row_out_n_4_ d_lut_sky130_fd_sc_hd__buf_4
A_1481_ [input8/X input7/X input6/X] _1482_/A d_lut_sky130_fd_sc_hd__or3_2
A_1550_ [_2014_/Q _1552_/S _1549_/Y _1836_/A] _1550_/X d_lut_sky130_fd_sc_hd__o22a_2
A_2033_ _2033_/D _2042_/CLK NULL ~fanout170/X _2033_/Q NULL ddflop
A_2102_ [_2102_/A] _2102_/X d_lut_sky130_fd_sc_hd__buf_1
A_1748_ [_1748_/A] _2102_/A d_lut_sky130_fd_sc_hd__buf_1
A_1817_ [_2005_/Q _1963_/S _1817_/S] _1818_/A d_lut_sky130_fd_sc_hd__mux2_1
A_1679_ [_1988_/Q _1984_/Q] _1679_/Y d_lut_sky130_fd_sc_hd__xnor2_2
A_0981_ [_2000_/Q] _1144_/A d_lut_sky130_fd_sc_hd__buf_6
A_1602_ [_2061_/Q _2014_/Q _2062_/Q _2015_/Q] _1602_/X d_lut_sky130_fd_sc_hd__a22o_2
A_1533_ [_1531_/Y _1532_/X _2012_/Q] _1533_/X d_lut_sky130_fd_sc_hd__a21o_2
A_1464_ [_1464_/A _1469_/C _1464_/C] _1464_/X d_lut_sky130_fd_sc_hd__and3_2
A_1395_ [_1460_/B _1343_/Y _1406_/B] _1395_/X d_lut_sky130_fd_sc_hd__a21o_2
A_2016_ _2016_/D _2024_/CLK NULL ~fanout171/X _2016_/Q NULL ddflop
A_1180_ [_1232_/C _1180_/B _1227_/C] _1181_/C d_lut_sky130_fd_sc_hd__or3_2
A_0964_ [_1994_/Q _1995_/Q _1996_/Q] _1157_/C d_lut_sky130_fd_sc_hd__or3_2
A_1516_ [_2010_/Q _1847_/B _1515_/X _1665_/A] _2010_/D d_lut_sky130_fd_sc_hd__a22o_2
A_1447_ [_1366_/X _1446_/X _1379_/X] _1448_/A d_lut_sky130_fd_sc_hd__o21ba_2
A_1378_ [_1469_/A _1408_/B _1451_/B] _1378_/X d_lut_sky130_fd_sc_hd__a21bo_2
A_1232_ [_2005_/Q _1232_/B _1232_/C _2004_/Q] _1233_/D d_lut_sky130_fd_sc_hd__or4b_2
A_1301_ [_1435_/A] _1469_/A d_lut_sky130_fd_sc_hd__buf_6
A_1094_ [_1156_/A _1105_/A _1233_/A _1150_/B] _1094_/Y d_lut_sky130_fd_sc_hd__nor4_4
A_1163_ [_1173_/B _1289_/A _1165_/C _1162_/B _1166_/B] _1163_/X d_lut_sky130_fd_sc_hd__o311a_2
A_1996_ _1996_/D _2067_/CLK NULL ~fanout175/X _1996_/Q NULL ddflop
A_0947_ [_2051_/Q _0947_/B _0947_/C] _0947_/X d_lut_sky130_fd_sc_hd__and3_2
A_1781_ [_1987_/Q] _1929_/S d_lut_sky130_fd_sc_hd__buf_4
A_1850_ [_1917_/B _1850_/B _1850_/C] _1850_/Y d_lut_sky130_fd_sc_hd__nand3_2
A_1215_ [_1404_/B] _1749_/A d_lut_sky130_fd_sc_hd__buf_6
A_1146_ [_1227_/C _1262_/C _1145_/X _0990_/C _1145_/A] _1148_/C d_lut_sky130_fd_sc_hd__o32a_2
A_1077_ [_1123_/A _1156_/A _1150_/B _1077_/D] _1105_/C d_lut_sky130_fd_sc_hd__or4_2
A_1979_ _1979_/D _2042_/CLK NULL ~fanout170/X _1979_/Q NULL ddflop
A_1000_ [_2067_/Q _2052_/Q _0914_/C _0999_/X _2065_/Q] _1000_/X d_lut_sky130_fd_sc_hd__a32o_2
A_1902_ [_2037_/Q _2026_/D _1900_/X _1901_/X] _2037_/D d_lut_sky130_fd_sc_hd__o22a_2
A_1764_ [_1981_/Q _1762_/Y _1766_/C] _1764_/X d_lut_sky130_fd_sc_hd__mux2_1
A_1833_ [_1987_/Q _1833_/B] _1923_/B d_lut_sky130_fd_sc_hd__nand2_4
A_1695_ [_1695_/A] _1928_/B d_lut_sky130_fd_sc_hd__buf_4
A_1129_ [_1125_/X _1126_/X _1127_/X _1128_/X _1262_/C] _1129_/X d_lut_sky130_fd_sc_hd__a311o_4
Aoutput24 [_1450_/Y] nmatrix_col_out_n_18_ d_lut_sky130_fd_sc_hd__buf_4
Aoutput57 [_2078_/A] nmatrix_row_out_n_5_ d_lut_sky130_fd_sc_hd__buf_4
Aoutput13 [_1033_/B] nmatrix_bincap_out_n_1_ d_lut_sky130_fd_sc_hd__buf_4
Aoutput46 [_1434_/X] nmatrix_col_out_n_9_ d_lut_sky130_fd_sc_hd__buf_4
Aoutput35 [_1468_/X] nmatrix_col_out_n_28_ d_lut_sky130_fd_sc_hd__buf_4
Aoutput68 [_2075_/X] nmatrix_rowon_out_n_1_ d_lut_sky130_fd_sc_hd__buf_4
Aoutput79 [_1070_/A] pmatrix_bincap_out_n_2_ d_lut_sky130_fd_sc_hd__buf_4
A_1480_ [_1980_/Q _1982_/Q _1986_/Q _1480_/D] _1697_/A d_lut_sky130_fd_sc_hd__or4_4
A_2032_ _2032_/D _2060_/CLK NULL ~fanout168/X _2032_/Q NULL ddflop
A_2101_ [_2101_/A] _2101_/X d_lut_sky130_fd_sc_hd__buf_1
A_1678_ [_1988_/Q] _1917_/B d_lut_sky130_fd_sc_hd__buf_4
A_1747_ [_1749_/B _1747_/B _1749_/D] _1748_/A d_lut_sky130_fd_sc_hd__or3_2
A_1816_ [_1816_/A] _2004_/D d_lut_sky130_fd_sc_hd__buf_1
A_0980_ [_0980_/A] _1262_/C d_lut_sky130_fd_sc_hd__buf_6
A_1601_ [_2016_/Q] _1893_/A d_lut_sky130_fd_sc_hd__buf_4
A_1532_ [_1532_/A _1538_/B _1538_/C] _1532_/X d_lut_sky130_fd_sc_hd__or3_2
A_1394_ [_1729_/A _1394_/B] _1406_/B d_lut_sky130_fd_sc_hd__nor2_2
A_1463_ [_1706_/D _1446_/B _1423_/A] _1463_/X d_lut_sky130_fd_sc_hd__a21o_2
A_2015_ _2015_/D _2024_/CLK NULL ~fanout171/X _2015_/Q NULL ddflop
A_0963_ [_1997_/Q _1177_/B] _0965_/C d_lut_sky130_fd_sc_hd__xnor2_2
A_1515_ [_1870_/C _1612_/B _1513_/X _1870_/B] _1515_/X d_lut_sky130_fd_sc_hd__a22o_2
A_1446_ [_1729_/A _1446_/B _1464_/C] _1446_/X d_lut_sky130_fd_sc_hd__and3_2
A_1377_ [_1471_/A _1375_/Y _1387_/A _1412_/B] _1377_/X d_lut_sky130_fd_sc_hd__o22a_2
A_1231_ [_1211_/A _1267_/A _1230_/X] _1231_/X d_lut_sky130_fd_sc_hd__a21o_2
A_1162_ [_1166_/A _1162_/B _1166_/B _1166_/C] _1162_/X d_lut_sky130_fd_sc_hd__and4_2
A_1300_ [_1706_/D] _1409_/B d_lut_sky130_fd_sc_hd__buf_6
A_1093_ [_1148_/D _1114_/D] _1093_/X d_lut_sky130_fd_sc_hd__and2_2
A_1995_ _1995_/D _2005_/CLK NULL ~fanout176/X _1995_/Q NULL ddflop
A_0946_ [_2051_/Q _0947_/C _0947_/B] _0946_/Y d_lut_sky130_fd_sc_hd__a21oi_2
A_1429_ [_1469_/C _1429_/B] _1429_/X d_lut_sky130_fd_sc_hd__or2_2
A_1780_ [_2026_/D _1780_/B] _1986_/D d_lut_sky130_fd_sc_hd__nor2_2
A_1214_ [_1344_/B _1344_/C] _1404_/B d_lut_sky130_fd_sc_hd__and2_2
A_1145_ [_1145_/A _1145_/B _1150_/B _1145_/D] _1145_/X d_lut_sky130_fd_sc_hd__or4_2
A_1076_ [_1122_/B _1122_/C _1122_/D] _1077_/D d_lut_sky130_fd_sc_hd__or3_2
A_1978_ _1978_/D _2034_/CLK ~fanout165/X NULL _1978_/Q NULL ddflop
A_0929_ [_1003_/B _0929_/B] _1793_/S d_lut_sky130_fd_sc_hd__nor2_2
A_1832_ [_2026_/D _1822_/C _1830_/X _1831_/X] _2029_/D d_lut_sky130_fd_sc_hd__a31o_2
A_1901_ [_1861_/B _2012_/D _1831_/B] _1901_/X d_lut_sky130_fd_sc_hd__a21o_2
A_1763_ [_1978_/Q _1979_/Q _1980_/Q] _1766_/C d_lut_sky130_fd_sc_hd__and3_2
A_1694_ [_1988_/Q _1989_/Q _1987_/Q] _1695_/A d_lut_sky130_fd_sc_hd__or3b_2
A_1128_ [_2005_/Q _1154_/A _1156_/B] _1128_/X d_lut_sky130_fd_sc_hd__or3b_2
A_1059_ [_1991_/Q _1993_/Q _1956_/B _1103_/A] _1059_/X d_lut_sky130_fd_sc_hd__and4bb_2
Aoutput14 [_1070_/Y] nmatrix_bincap_out_n_2_ d_lut_sky130_fd_sc_hd__buf_4
Aoutput25 [_1453_/X] nmatrix_col_out_n_19_ d_lut_sky130_fd_sc_hd__buf_4
Aoutput47 [_2083_/A] nmatrix_row_out_n_10_ d_lut_sky130_fd_sc_hd__buf_4
Aoutput36 [_1470_/Y] nmatrix_col_out_n_29_ d_lut_sky130_fd_sc_hd__buf_4
Aoutput58 [_2079_/A] nmatrix_row_out_n_6_ d_lut_sky130_fd_sc_hd__buf_4
Aoutput69 [_2076_/X] nmatrix_rowon_out_n_2_ d_lut_sky130_fd_sc_hd__buf_4
A_2100_ [_2100_/A] _2100_/X d_lut_sky130_fd_sc_hd__buf_1
A_2031_ _2031_/D _2034_/CLK NULL ~fanout165/X _2031_/Q NULL ddflop
A_1815_ [_2004_/Q _2005_/Q _1817_/S] _1816_/A d_lut_sky130_fd_sc_hd__mux2_1
A_1677_ [input8/X input7/X input6/X] _1861_/B d_lut_sky130_fd_sc_hd__nor3_4
A_1746_ [_1746_/A] _2101_/A d_lut_sky130_fd_sc_hd__buf_1
A_1600_ [_1877_/A] _2015_/D d_lut_sky130_fd_sc_hd__inv_2
A_1531_ [_1538_/B _1538_/C _1532_/A _1869_/B] _1531_/Y d_lut_sky130_fd_sc_hd__o211ai_2
A_1462_ [_1423_/A _1469_/C _1372_/X _1460_/Y _1408_/A] _1462_/X d_lut_sky130_fd_sc_hd__a2111o_2
A_1393_ [_1435_/B _1471_/B _1341_/Y _1391_/C] _1393_/X d_lut_sky130_fd_sc_hd__a31o_2
A_2014_ _2014_/D _2024_/CLK NULL ~fanout171/X _2014_/Q NULL ddflop
A_1729_ [_1729_/A _1729_/B _1729_/C _1749_/B] _1730_/A d_lut_sky130_fd_sc_hd__or4b_2
A_0962_ [_1998_/Q] _1177_/B d_lut_sky130_fd_sc_hd__buf_6
A_1514_ [_2010_/Q] _1870_/B d_lut_sky130_fd_sc_hd__inv_2
A_1445_ [_1350_/B _1409_/B _1429_/X _1366_/X] _1445_/X d_lut_sky130_fd_sc_hd__o31a_2
A_1376_ [_1376_/A _1436_/B _1376_/C] _1387_/A d_lut_sky130_fd_sc_hd__nor3_2
A_1092_ [_1173_/C] _1289_/A d_lut_sky130_fd_sc_hd__buf_6
A_1230_ [_1191_/Y _1226_/Y _1229_/X _1201_/B] _1230_/X d_lut_sky130_fd_sc_hd__a211o_2
A_1161_ [_1160_/X _1041_/B _1053_/X _1967_/Q] _1166_/C d_lut_sky130_fd_sc_hd__o31ai_2
A_1994_ _1994_/D _2005_/CLK NULL ~fanout176/X _1994_/Q NULL ddflop
A_0945_ [_2052_/Q] _0947_/B d_lut_sky130_fd_sc_hd__inv_2
A_1428_ [_1423_/A _1427_/X _1419_/Y] _1428_/X d_lut_sky130_fd_sc_hd__a21o_2
A_1359_ [_1353_/A _1353_/D _1359_/C _1359_/D] _1360_/A d_lut_sky130_fd_sc_hd__nand4bb_2
A_1213_ [_1290_/C _1210_/X _1211_/Y _1219_/A _1289_/B] _1344_/C d_lut_sky130_fd_sc_hd__a311o_4
A_1144_ [_1144_/A _1232_/B] _1145_/D d_lut_sky130_fd_sc_hd__or2_2
A_1075_ [_1144_/A] _1156_/A d_lut_sky130_fd_sc_hd__inv_2
A_1977_ _1977_/D _2059_/CLK NULL ~fanout167/X _1977_/Q NULL ddflop
A_0928_ [_0926_/Y _0927_/Y _2047_/Q] _0929_/B d_lut_sky130_fd_sc_hd__a21oi_2
A_1831_ [_2029_/Q _1831_/B] _1831_/X d_lut_sky130_fd_sc_hd__and2_2
A_1900_ [_2020_/D _1889_/B _1895_/X _1899_/X] _1900_/X d_lut_sky130_fd_sc_hd__o211a_2
A_1762_ [_1981_/Q _1882_/A] _1762_/Y d_lut_sky130_fd_sc_hd__nor2_2
A_1693_ [_1986_/Q _1693_/B] _1697_/C d_lut_sky130_fd_sc_hd__xor2_2
A_1127_ [_1014_/Y _1015_/Y _1016_/X _1123_/C] _1127_/X d_lut_sky130_fd_sc_hd__a211o_2
A_1058_ [_1057_/Y _1160_/A _1992_/Q] _1058_/X d_lut_sky130_fd_sc_hd__mux2_1
Aoutput48 [_2084_/A] nmatrix_row_out_n_11_ d_lut_sky130_fd_sc_hd__buf_4
Aoutput26 [_1415_/X] nmatrix_col_out_n_1_ d_lut_sky130_fd_sc_hd__buf_4
Aoutput15 [_1414_/X] nmatrix_col_out_n_0_ d_lut_sky130_fd_sc_hd__buf_4
Aoutput37 [_1417_/Y] nmatrix_col_out_n_2_ d_lut_sky130_fd_sc_hd__buf_4
Aoutput59 [_2080_/A] nmatrix_row_out_n_7_ d_lut_sky130_fd_sc_hd__buf_4
A_2030_ _2030_/D _2039_/CLK NULL ~fanout166/X _2030_/Q NULL ddflop
A_1745_ [_1747_/B _1749_/D _1712_/C] _1746_/A d_lut_sky130_fd_sc_hd__or3b_2
A_1814_ [_1814_/A] _2003_/D d_lut_sky130_fd_sc_hd__buf_1
A_1676_ [_1956_/D] _1977_/D d_lut_sky130_fd_sc_hd__buf_6
A_1530_ [_2059_/Q] _1532_/A d_lut_sky130_fd_sc_hd__inv_2
A_1461_ [_1423_/A _1429_/X _1460_/Y] _1461_/X d_lut_sky130_fd_sc_hd__a21o_2
A_1392_ [_1392_/A] _1392_/X d_lut_sky130_fd_sc_hd__buf_6
A_2013_ _2013_/D _2059_/CLK NULL ~fanout167/X _2013_/Q NULL ddflop
A_1728_ [_1728_/A] _2087_/A d_lut_sky130_fd_sc_hd__buf_2
A_1659_ [_2022_/Q _1659_/B] _1660_/B d_lut_sky130_fd_sc_hd__xnor2_2
A_0961_ [_2001_/Q _2000_/Q] _1123_/C d_lut_sky130_fd_sc_hd__or2_4
A_1513_ [_1505_/Y _1870_/C _1513_/S] _1513_/X d_lut_sky130_fd_sc_hd__mux2_1
A_1444_ [_1435_/B _1337_/X _1412_/B] _1444_/Y d_lut_sky130_fd_sc_hd__a21oi_2
A_1375_ [_1343_/A _1451_/B _1366_/X] _1375_/Y d_lut_sky130_fd_sc_hd__a21oi_2
A_1160_ [_1160_/A _1229_/D _1160_/C] _1160_/X d_lut_sky130_fd_sc_hd__and3_2
A_1091_ [_1969_/Q _1202_/B] _1173_/C d_lut_sky130_fd_sc_hd__xnor2_4
A_1993_ _1993_/D _2005_/CLK NULL ~fanout176/X _1993_/Q NULL ddflop
A_0944_ [_1799_/S _0944_/B] _2051_/D d_lut_sky130_fd_sc_hd__nor2_2
A_1427_ [_1446_/B _1429_/B] _1427_/X d_lut_sky130_fd_sc_hd__or2_2
A_1358_ [_1404_/C _1386_/B] _1359_/D d_lut_sky130_fd_sc_hd__nand2_2
A_1289_ [_1289_/A _1289_/B] _1290_/D d_lut_sky130_fd_sc_hd__nand2_2
A_1212_ [_1212_/A _1212_/B] _1219_/A d_lut_sky130_fd_sc_hd__and2_2
A_1074_ [_1968_/Q] _1105_/A d_lut_sky130_fd_sc_hd__inv_4
A_1143_ [_2005_/Q _2004_/Q] _1227_/C d_lut_sky130_fd_sc_hd__or2_2
A_0927_ [_0914_/C _0926_/A _2067_/Q] _0927_/Y d_lut_sky130_fd_sc_hd__o21ai_2
A_1976_ _1976_/D _2067_/CLK NULL ~fanout175/X _1976_/Q NULL ddflop
A_1761_ [_1980_/Q _1882_/A _1751_/B _1760_/X] _1980_/D d_lut_sky130_fd_sc_hd__a22o_2
A_1830_ [_2012_/D _1828_/X _1833_/B] _1830_/X d_lut_sky130_fd_sc_hd__mux2_1
A_1692_ [_1989_/Q _1849_/B] _1693_/B d_lut_sky130_fd_sc_hd__nand2_2
A_1126_ [_1126_/A _1156_/A _1262_/D] _1126_/X d_lut_sky130_fd_sc_hd__or3_2
A_1057_ [_1150_/B _1150_/C] _1057_/Y d_lut_sky130_fd_sc_hd__nor2_2
A_1959_ [_2065_/Q input3/X _1963_/S] _1960_/A d_lut_sky130_fd_sc_hd__mux2_1
Aoutput38 [_1472_/X] nmatrix_col_out_n_30_ d_lut_sky130_fd_sc_hd__buf_4
Aoutput49 [_2085_/A] nmatrix_row_out_n_12_ d_lut_sky130_fd_sc_hd__buf_4
Aoutput16 [_1437_/X] nmatrix_col_out_n_10_ d_lut_sky130_fd_sc_hd__buf_4
Aoutput27 [_1455_/X] nmatrix_col_out_n_20_ d_lut_sky130_fd_sc_hd__buf_4
A_1744_ [_2081_/A _1744_/B] _2100_/A d_lut_sky130_fd_sc_hd__nand2_4
A_1813_ [_1232_/B _2004_/Q _1817_/S] _1814_/A d_lut_sky130_fd_sc_hd__mux2_1
A_1675_ [_1675_/A] _1956_/D d_lut_sky130_fd_sc_hd__buf_4
A_2089_ [_2089_/A] _2089_/X d_lut_sky130_fd_sc_hd__buf_1
A_1109_ [_1289_/A _1109_/B] _1109_/X d_lut_sky130_fd_sc_hd__xor2_2
A_1391_ [_1391_/A _1391_/B _1391_/C _1390_/X] _1392_/A d_lut_sky130_fd_sc_hd__or4b_2
A_1460_ [_1749_/A _1460_/B] _1460_/Y d_lut_sky130_fd_sc_hd__nor2_2
A_2012_ _2012_/D _2060_/CLK NULL ~fanout168/X _2012_/Q NULL ddflop
A_1658_ [_2020_/Q _2021_/Q _1671_/B _1671_/C] _1659_/B d_lut_sky130_fd_sc_hd__and4_2
A_1727_ [_1729_/B _1744_/B _1749_/B] _1728_/A d_lut_sky130_fd_sc_hd__or3b_2
A_1589_ [_1882_/A _2015_/Q] _1598_/B d_lut_sky130_fd_sc_hd__nand2_2
A_0960_ [_1999_/Q] _1123_/A d_lut_sky130_fd_sc_hd__buf_6
A_1512_ [_1621_/D] _1612_/B d_lut_sky130_fd_sc_hd__buf_6
A_1374_ [_1344_/B _1344_/C _1435_/B] _1451_/B d_lut_sky130_fd_sc_hd__a21oi_4
A_1443_ [_1443_/A] _1443_/X d_lut_sky130_fd_sc_hd__buf_1
A_1090_ [_1090_/A _1090_/B] _1202_/B d_lut_sky130_fd_sc_hd__and2_2
A_1992_ _1992_/D _2065_/CLK NULL ~fanout174/X _1992_/Q NULL ddflop
A_0943_ [_2051_/Q _0947_/C] _0944_/B d_lut_sky130_fd_sc_hd__xnor2_2
A_1426_ [_1423_/A _1343_/A _1370_/X _1424_/X] _1426_/X d_lut_sky130_fd_sc_hd__a211o_2
A_1357_ [_1399_/A _1390_/A] _1386_/B d_lut_sky130_fd_sc_hd__nor2_4
A_1288_ [_1290_/A _1290_/B _1289_/B _1290_/C _1289_/A] _1288_/Y d_lut_sky130_fd_sc_hd__o2111ai_4
A_1142_ [_1963_/S _1142_/B] _1970_/D d_lut_sky130_fd_sc_hd__nor2_2
A_1211_ [_1211_/A _1211_/B] _1211_/Y d_lut_sky130_fd_sc_hd__nand2_2