*SPEF "ieee 1481-1999"
*DESIGN "adc_clkgen_with_edgedetect"
*DATE "11:11:11 Fri 11 11, 1111"
*VENDOR "OpenRCX"
*PROGRAM "Parallel Extraction"
*VERSION "1.0"
*DESIGN_FLOW "NAME_SCOPE LOCAL" "PIN_CAP NONE"
*DIVIDER /
*DELIMITER :
*BUS_DELIMITER []
*T_UNIT 1 NS
*C_UNIT 1 PF
*R_UNIT 1 OHM
*L_UNIT 1 HENRY

*NAME_MAP
*3 clk_comp_out
*4 clk_dig_out
*5 dlycontrol1_in[0]
*6 dlycontrol1_in[1]
*7 dlycontrol1_in[2]
*8 dlycontrol1_in[3]
*9 dlycontrol1_in[4]
*10 dlycontrol2_in[0]
*11 dlycontrol2_in[1]
*12 dlycontrol2_in[2]
*13 dlycontrol2_in[3]
*14 dlycontrol2_in[4]
*15 dlycontrol3_in[0]
*16 dlycontrol3_in[1]
*17 dlycontrol3_in[2]
*18 dlycontrol3_in[3]
*19 dlycontrol3_in[4]
*20 dlycontrol4_in[0]
*21 dlycontrol4_in[1]
*22 dlycontrol4_in[2]
*23 dlycontrol4_in[3]
*24 dlycontrol4_in[4]
*25 dlycontrol4_in[5]
*26 ena_in
*27 enable_dlycontrol_in
*28 ndecision_finish_in
*29 nsample_n_in
*30 nsample_n_out
*31 nsample_p_in
*32 nsample_p_out
*33 sample_n_in
*34 sample_n_out
*35 sample_p_in
*36 sample_p_out
*37 start_conv_in
*40 clkgen\.clk_comp_out
*41 clkgen\.clk_dig_delayed_w
*42 clkgen\.clk_dig_out
*43 clkgen\.delay_155ns_1\.bypass_enable_w\[0\]
*44 clkgen\.delay_155ns_1\.bypass_enable_w\[1\]
*45 clkgen\.delay_155ns_1\.bypass_enable_w\[2\]
*46 clkgen\.delay_155ns_1\.bypass_enable_w\[3\]
*47 clkgen\.delay_155ns_1\.bypass_enable_w\[4\]
*48 clkgen\.delay_155ns_1\.enable_dlycontrol_w
*49 clkgen\.delay_155ns_1\.genblk1\[0\]\.dly_binary\.bypass_in
*50 clkgen\.delay_155ns_1\.genblk1\[0\]\.dly_binary\.in
*51 clkgen\.delay_155ns_1\.genblk1\[0\]\.dly_binary\.out
*52 clkgen\.delay_155ns_1\.genblk1\[0\]\.dly_binary\.signal_w\[0\]
*53 clkgen\.delay_155ns_1\.genblk1\[0\]\.dly_binary\.signal_w\[1\]
*54 clkgen\.delay_155ns_1\.genblk1\[1\]\.dly_binary\.bypass_in
*55 clkgen\.delay_155ns_1\.genblk1\[1\]\.dly_binary\.out
*56 clkgen\.delay_155ns_1\.genblk1\[1\]\.dly_binary\.signal_w\[0\]
*57 clkgen\.delay_155ns_1\.genblk1\[1\]\.dly_binary\.signal_w\[1\]
*58 clkgen\.delay_155ns_1\.genblk1\[1\]\.dly_binary\.signal_w\[2\]
*59 clkgen\.delay_155ns_1\.genblk1\[2\]\.dly_binary\.bypass_in
*60 clkgen\.delay_155ns_1\.genblk1\[2\]\.dly_binary\.out
*61 clkgen\.delay_155ns_1\.genblk1\[2\]\.dly_binary\.signal_w\[0\]
*62 clkgen\.delay_155ns_1\.genblk1\[2\]\.dly_binary\.signal_w\[1\]
*63 clkgen\.delay_155ns_1\.genblk1\[2\]\.dly_binary\.signal_w\[2\]
*64 clkgen\.delay_155ns_1\.genblk1\[2\]\.dly_binary\.signal_w\[3\]
*65 clkgen\.delay_155ns_1\.genblk1\[2\]\.dly_binary\.signal_w\[4\]
*66 clkgen\.delay_155ns_1\.genblk1\[3\]\.dly_binary\.bypass_in
*67 clkgen\.delay_155ns_1\.genblk1\[3\]\.dly_binary\.out
*68 clkgen\.delay_155ns_1\.genblk1\[3\]\.dly_binary\.signal_w\[0\]
*69 clkgen\.delay_155ns_1\.genblk1\[3\]\.dly_binary\.signal_w\[1\]
*70 clkgen\.delay_155ns_1\.genblk1\[3\]\.dly_binary\.signal_w\[2\]
*71 clkgen\.delay_155ns_1\.genblk1\[3\]\.dly_binary\.signal_w\[3\]
*72 clkgen\.delay_155ns_1\.genblk1\[3\]\.dly_binary\.signal_w\[4\]
*73 clkgen\.delay_155ns_1\.genblk1\[3\]\.dly_binary\.signal_w\[5\]
*74 clkgen\.delay_155ns_1\.genblk1\[3\]\.dly_binary\.signal_w\[6\]
*75 clkgen\.delay_155ns_1\.genblk1\[3\]\.dly_binary\.signal_w\[7\]
*76 clkgen\.delay_155ns_1\.genblk1\[3\]\.dly_binary\.signal_w\[8\]
*77 clkgen\.delay_155ns_1\.genblk1\[4\]\.dly_binary\.bypass_in
*78 clkgen\.delay_155ns_1\.genblk1\[4\]\.dly_binary\.out
*79 clkgen\.delay_155ns_1\.genblk1\[4\]\.dly_binary\.signal_w\[0\]
*80 clkgen\.delay_155ns_1\.genblk1\[4\]\.dly_binary\.signal_w\[10\]
*81 clkgen\.delay_155ns_1\.genblk1\[4\]\.dly_binary\.signal_w\[11\]
*82 clkgen\.delay_155ns_1\.genblk1\[4\]\.dly_binary\.signal_w\[12\]
*83 clkgen\.delay_155ns_1\.genblk1\[4\]\.dly_binary\.signal_w\[13\]
*84 clkgen\.delay_155ns_1\.genblk1\[4\]\.dly_binary\.signal_w\[14\]
*85 clkgen\.delay_155ns_1\.genblk1\[4\]\.dly_binary\.signal_w\[15\]
*86 clkgen\.delay_155ns_1\.genblk1\[4\]\.dly_binary\.signal_w\[16\]
*87 clkgen\.delay_155ns_1\.genblk1\[4\]\.dly_binary\.signal_w\[1\]
*88 clkgen\.delay_155ns_1\.genblk1\[4\]\.dly_binary\.signal_w\[2\]
*89 clkgen\.delay_155ns_1\.genblk1\[4\]\.dly_binary\.signal_w\[3\]
*90 clkgen\.delay_155ns_1\.genblk1\[4\]\.dly_binary\.signal_w\[4\]
*91 clkgen\.delay_155ns_1\.genblk1\[4\]\.dly_binary\.signal_w\[5\]
*92 clkgen\.delay_155ns_1\.genblk1\[4\]\.dly_binary\.signal_w\[6\]
*93 clkgen\.delay_155ns_1\.genblk1\[4\]\.dly_binary\.signal_w\[7\]
*94 clkgen\.delay_155ns_1\.genblk1\[4\]\.dly_binary\.signal_w\[8\]
*95 clkgen\.delay_155ns_1\.genblk1\[4\]\.dly_binary\.signal_w\[9\]
*96 clkgen\.delay_155ns_2\.bypass_enable_w\[0\]
*97 clkgen\.delay_155ns_2\.bypass_enable_w\[1\]
*98 clkgen\.delay_155ns_2\.bypass_enable_w\[2\]
*99 clkgen\.delay_155ns_2\.bypass_enable_w\[3\]
*100 clkgen\.delay_155ns_2\.bypass_enable_w\[4\]
*101 clkgen\.delay_155ns_2\.enable_dlycontrol_w
*102 clkgen\.delay_155ns_2\.genblk1\[0\]\.dly_binary\.bypass_in
*103 clkgen\.delay_155ns_2\.genblk1\[0\]\.dly_binary\.out
*104 clkgen\.delay_155ns_2\.genblk1\[0\]\.dly_binary\.signal_w\[0\]
*105 clkgen\.delay_155ns_2\.genblk1\[0\]\.dly_binary\.signal_w\[1\]
*106 clkgen\.delay_155ns_2\.genblk1\[1\]\.dly_binary\.bypass_in
*107 clkgen\.delay_155ns_2\.genblk1\[1\]\.dly_binary\.out
*108 clkgen\.delay_155ns_2\.genblk1\[1\]\.dly_binary\.signal_w\[0\]
*109 clkgen\.delay_155ns_2\.genblk1\[1\]\.dly_binary\.signal_w\[1\]
*110 clkgen\.delay_155ns_2\.genblk1\[1\]\.dly_binary\.signal_w\[2\]
*111 clkgen\.delay_155ns_2\.genblk1\[2\]\.dly_binary\.bypass_in
*112 clkgen\.delay_155ns_2\.genblk1\[2\]\.dly_binary\.out
*113 clkgen\.delay_155ns_2\.genblk1\[2\]\.dly_binary\.signal_w\[0\]
*114 clkgen\.delay_155ns_2\.genblk1\[2\]\.dly_binary\.signal_w\[1\]
*115 clkgen\.delay_155ns_2\.genblk1\[2\]\.dly_binary\.signal_w\[2\]
*116 clkgen\.delay_155ns_2\.genblk1\[2\]\.dly_binary\.signal_w\[3\]
*117 clkgen\.delay_155ns_2\.genblk1\[2\]\.dly_binary\.signal_w\[4\]
*118 clkgen\.delay_155ns_2\.genblk1\[3\]\.dly_binary\.bypass_in
*119 clkgen\.delay_155ns_2\.genblk1\[3\]\.dly_binary\.out
*120 clkgen\.delay_155ns_2\.genblk1\[3\]\.dly_binary\.signal_w\[0\]
*121 clkgen\.delay_155ns_2\.genblk1\[3\]\.dly_binary\.signal_w\[1\]
*122 clkgen\.delay_155ns_2\.genblk1\[3\]\.dly_binary\.signal_w\[2\]
*123 clkgen\.delay_155ns_2\.genblk1\[3\]\.dly_binary\.signal_w\[3\]
*124 clkgen\.delay_155ns_2\.genblk1\[3\]\.dly_binary\.signal_w\[4\]
*125 clkgen\.delay_155ns_2\.genblk1\[3\]\.dly_binary\.signal_w\[5\]
*126 clkgen\.delay_155ns_2\.genblk1\[3\]\.dly_binary\.signal_w\[6\]
*127 clkgen\.delay_155ns_2\.genblk1\[3\]\.dly_binary\.signal_w\[7\]
*128 clkgen\.delay_155ns_2\.genblk1\[3\]\.dly_binary\.signal_w\[8\]
*129 clkgen\.delay_155ns_2\.genblk1\[4\]\.dly_binary\.bypass_in
*130 clkgen\.delay_155ns_2\.genblk1\[4\]\.dly_binary\.signal_w\[0\]
*131 clkgen\.delay_155ns_2\.genblk1\[4\]\.dly_binary\.signal_w\[10\]
*132 clkgen\.delay_155ns_2\.genblk1\[4\]\.dly_binary\.signal_w\[11\]
*133 clkgen\.delay_155ns_2\.genblk1\[4\]\.dly_binary\.signal_w\[12\]
*134 clkgen\.delay_155ns_2\.genblk1\[4\]\.dly_binary\.signal_w\[13\]
*135 clkgen\.delay_155ns_2\.genblk1\[4\]\.dly_binary\.signal_w\[14\]
*136 clkgen\.delay_155ns_2\.genblk1\[4\]\.dly_binary\.signal_w\[15\]
*137 clkgen\.delay_155ns_2\.genblk1\[4\]\.dly_binary\.signal_w\[16\]
*138 clkgen\.delay_155ns_2\.genblk1\[4\]\.dly_binary\.signal_w\[1\]
*139 clkgen\.delay_155ns_2\.genblk1\[4\]\.dly_binary\.signal_w\[2\]
*140 clkgen\.delay_155ns_2\.genblk1\[4\]\.dly_binary\.signal_w\[3\]
*141 clkgen\.delay_155ns_2\.genblk1\[4\]\.dly_binary\.signal_w\[4\]
*142 clkgen\.delay_155ns_2\.genblk1\[4\]\.dly_binary\.signal_w\[5\]
*143 clkgen\.delay_155ns_2\.genblk1\[4\]\.dly_binary\.signal_w\[6\]
*144 clkgen\.delay_155ns_2\.genblk1\[4\]\.dly_binary\.signal_w\[7\]
*145 clkgen\.delay_155ns_2\.genblk1\[4\]\.dly_binary\.signal_w\[8\]
*146 clkgen\.delay_155ns_2\.genblk1\[4\]\.dly_binary\.signal_w\[9\]
*147 clkgen\.delay_155ns_3\.bypass_enable_w\[0\]
*148 clkgen\.delay_155ns_3\.bypass_enable_w\[1\]
*149 clkgen\.delay_155ns_3\.bypass_enable_w\[2\]
*150 clkgen\.delay_155ns_3\.bypass_enable_w\[3\]
*151 clkgen\.delay_155ns_3\.bypass_enable_w\[4\]
*152 clkgen\.delay_155ns_3\.enable_dlycontrol_w
*153 clkgen\.delay_155ns_3\.genblk1\[0\]\.dly_binary\.bypass_in
*154 clkgen\.delay_155ns_3\.genblk1\[0\]\.dly_binary\.in
*155 clkgen\.delay_155ns_3\.genblk1\[0\]\.dly_binary\.out
*156 clkgen\.delay_155ns_3\.genblk1\[0\]\.dly_binary\.signal_w\[0\]
*157 clkgen\.delay_155ns_3\.genblk1\[0\]\.dly_binary\.signal_w\[1\]
*158 clkgen\.delay_155ns_3\.genblk1\[1\]\.dly_binary\.bypass_in
*159 clkgen\.delay_155ns_3\.genblk1\[1\]\.dly_binary\.out
*160 clkgen\.delay_155ns_3\.genblk1\[1\]\.dly_binary\.signal_w\[0\]
*161 clkgen\.delay_155ns_3\.genblk1\[1\]\.dly_binary\.signal_w\[1\]
*162 clkgen\.delay_155ns_3\.genblk1\[1\]\.dly_binary\.signal_w\[2\]
*163 clkgen\.delay_155ns_3\.genblk1\[2\]\.dly_binary\.bypass_in
*164 clkgen\.delay_155ns_3\.genblk1\[2\]\.dly_binary\.out
*165 clkgen\.delay_155ns_3\.genblk1\[2\]\.dly_binary\.signal_w\[0\]
*166 clkgen\.delay_155ns_3\.genblk1\[2\]\.dly_binary\.signal_w\[1\]
*167 clkgen\.delay_155ns_3\.genblk1\[2\]\.dly_binary\.signal_w\[2\]
*168 clkgen\.delay_155ns_3\.genblk1\[2\]\.dly_binary\.signal_w\[3\]
*169 clkgen\.delay_155ns_3\.genblk1\[2\]\.dly_binary\.signal_w\[4\]
*170 clkgen\.delay_155ns_3\.genblk1\[3\]\.dly_binary\.bypass_in
*171 clkgen\.delay_155ns_3\.genblk1\[3\]\.dly_binary\.out
*172 clkgen\.delay_155ns_3\.genblk1\[3\]\.dly_binary\.signal_w\[0\]
*173 clkgen\.delay_155ns_3\.genblk1\[3\]\.dly_binary\.signal_w\[1\]
*174 clkgen\.delay_155ns_3\.genblk1\[3\]\.dly_binary\.signal_w\[2\]
*175 clkgen\.delay_155ns_3\.genblk1\[3\]\.dly_binary\.signal_w\[3\]
*176 clkgen\.delay_155ns_3\.genblk1\[3\]\.dly_binary\.signal_w\[4\]
*177 clkgen\.delay_155ns_3\.genblk1\[3\]\.dly_binary\.signal_w\[5\]
*178 clkgen\.delay_155ns_3\.genblk1\[3\]\.dly_binary\.signal_w\[6\]
*179 clkgen\.delay_155ns_3\.genblk1\[3\]\.dly_binary\.signal_w\[7\]
*180 clkgen\.delay_155ns_3\.genblk1\[3\]\.dly_binary\.signal_w\[8\]
*181 clkgen\.delay_155ns_3\.genblk1\[4\]\.dly_binary\.bypass_in
*182 clkgen\.delay_155ns_3\.genblk1\[4\]\.dly_binary\.signal_w\[0\]
*183 clkgen\.delay_155ns_3\.genblk1\[4\]\.dly_binary\.signal_w\[10\]
*184 clkgen\.delay_155ns_3\.genblk1\[4\]\.dly_binary\.signal_w\[11\]
*185 clkgen\.delay_155ns_3\.genblk1\[4\]\.dly_binary\.signal_w\[12\]
*186 clkgen\.delay_155ns_3\.genblk1\[4\]\.dly_binary\.signal_w\[13\]
*187 clkgen\.delay_155ns_3\.genblk1\[4\]\.dly_binary\.signal_w\[14\]
*188 clkgen\.delay_155ns_3\.genblk1\[4\]\.dly_binary\.signal_w\[15\]
*189 clkgen\.delay_155ns_3\.genblk1\[4\]\.dly_binary\.signal_w\[16\]
*190 clkgen\.delay_155ns_3\.genblk1\[4\]\.dly_binary\.signal_w\[1\]
*191 clkgen\.delay_155ns_3\.genblk1\[4\]\.dly_binary\.signal_w\[2\]
*192 clkgen\.delay_155ns_3\.genblk1\[4\]\.dly_binary\.signal_w\[3\]
*193 clkgen\.delay_155ns_3\.genblk1\[4\]\.dly_binary\.signal_w\[4\]
*194 clkgen\.delay_155ns_3\.genblk1\[4\]\.dly_binary\.signal_w\[5\]
*195 clkgen\.delay_155ns_3\.genblk1\[4\]\.dly_binary\.signal_w\[6\]
*196 clkgen\.delay_155ns_3\.genblk1\[4\]\.dly_binary\.signal_w\[7\]
*197 clkgen\.delay_155ns_3\.genblk1\[4\]\.dly_binary\.signal_w\[8\]
*198 clkgen\.delay_155ns_3\.genblk1\[4\]\.dly_binary\.signal_w\[9\]
*199 clkgen\.enable_loop_in
*200 edgedetect\.dly_315ns_1\.bypass_enable_w\[0\]
*201 edgedetect\.dly_315ns_1\.bypass_enable_w\[1\]
*202 edgedetect\.dly_315ns_1\.bypass_enable_w\[2\]
*203 edgedetect\.dly_315ns_1\.bypass_enable_w\[3\]
*204 edgedetect\.dly_315ns_1\.bypass_enable_w\[4\]
*205 edgedetect\.dly_315ns_1\.bypass_enable_w\[5\]
*206 edgedetect\.dly_315ns_1\.enable_dlycontrol_w
*207 edgedetect\.dly_315ns_1\.genblk1\[0\]\.dly_binary\.bypass_in
*208 edgedetect\.dly_315ns_1\.genblk1\[0\]\.dly_binary\.in
*209 edgedetect\.dly_315ns_1\.genblk1\[0\]\.dly_binary\.out
*210 edgedetect\.dly_315ns_1\.genblk1\[0\]\.dly_binary\.signal_w\[0\]
*211 edgedetect\.dly_315ns_1\.genblk1\[0\]\.dly_binary\.signal_w\[1\]
*212 edgedetect\.dly_315ns_1\.genblk1\[1\]\.dly_binary\.bypass_in
*213 edgedetect\.dly_315ns_1\.genblk1\[1\]\.dly_binary\.out
*214 edgedetect\.dly_315ns_1\.genblk1\[1\]\.dly_binary\.signal_w\[0\]
*215 edgedetect\.dly_315ns_1\.genblk1\[1\]\.dly_binary\.signal_w\[1\]
*216 edgedetect\.dly_315ns_1\.genblk1\[1\]\.dly_binary\.signal_w\[2\]
*217 edgedetect\.dly_315ns_1\.genblk1\[2\]\.dly_binary\.bypass_in
*218 edgedetect\.dly_315ns_1\.genblk1\[2\]\.dly_binary\.out
*219 edgedetect\.dly_315ns_1\.genblk1\[2\]\.dly_binary\.signal_w\[0\]
*220 edgedetect\.dly_315ns_1\.genblk1\[2\]\.dly_binary\.signal_w\[1\]
*221 edgedetect\.dly_315ns_1\.genblk1\[2\]\.dly_binary\.signal_w\[2\]
*222 edgedetect\.dly_315ns_1\.genblk1\[2\]\.dly_binary\.signal_w\[3\]
*223 edgedetect\.dly_315ns_1\.genblk1\[2\]\.dly_binary\.signal_w\[4\]
*224 edgedetect\.dly_315ns_1\.genblk1\[3\]\.dly_binary\.bypass_in
*225 edgedetect\.dly_315ns_1\.genblk1\[3\]\.dly_binary\.out
*226 edgedetect\.dly_315ns_1\.genblk1\[3\]\.dly_binary\.signal_w\[0\]
*227 edgedetect\.dly_315ns_1\.genblk1\[3\]\.dly_binary\.signal_w\[1\]
*228 edgedetect\.dly_315ns_1\.genblk1\[3\]\.dly_binary\.signal_w\[2\]
*229 edgedetect\.dly_315ns_1\.genblk1\[3\]\.dly_binary\.signal_w\[3\]
*230 edgedetect\.dly_315ns_1\.genblk1\[3\]\.dly_binary\.signal_w\[4\]
*231 edgedetect\.dly_315ns_1\.genblk1\[3\]\.dly_binary\.signal_w\[5\]
*232 edgedetect\.dly_315ns_1\.genblk1\[3\]\.dly_binary\.signal_w\[6\]
*233 edgedetect\.dly_315ns_1\.genblk1\[3\]\.dly_binary\.signal_w\[7\]
*234 edgedetect\.dly_315ns_1\.genblk1\[3\]\.dly_binary\.signal_w\[8\]
*235 edgedetect\.dly_315ns_1\.genblk1\[4\]\.dly_binary\.bypass_in
*236 edgedetect\.dly_315ns_1\.genblk1\[4\]\.dly_binary\.out
*237 edgedetect\.dly_315ns_1\.genblk1\[4\]\.dly_binary\.signal_w\[0\]
*238 edgedetect\.dly_315ns_1\.genblk1\[4\]\.dly_binary\.signal_w\[10\]
*239 edgedetect\.dly_315ns_1\.genblk1\[4\]\.dly_binary\.signal_w\[11\]
*240 edgedetect\.dly_315ns_1\.genblk1\[4\]\.dly_binary\.signal_w\[12\]
*241 edgedetect\.dly_315ns_1\.genblk1\[4\]\.dly_binary\.signal_w\[13\]
*242 edgedetect\.dly_315ns_1\.genblk1\[4\]\.dly_binary\.signal_w\[14\]
*243 edgedetect\.dly_315ns_1\.genblk1\[4\]\.dly_binary\.signal_w\[15\]
*244 edgedetect\.dly_315ns_1\.genblk1\[4\]\.dly_binary\.signal_w\[16\]
*245 edgedetect\.dly_315ns_1\.genblk1\[4\]\.dly_binary\.signal_w\[1\]
*246 edgedetect\.dly_315ns_1\.genblk1\[4\]\.dly_binary\.signal_w\[2\]
*247 edgedetect\.dly_315ns_1\.genblk1\[4\]\.dly_binary\.signal_w\[3\]
*248 edgedetect\.dly_315ns_1\.genblk1\[4\]\.dly_binary\.signal_w\[4\]
*249 edgedetect\.dly_315ns_1\.genblk1\[4\]\.dly_binary\.signal_w\[5\]
*250 edgedetect\.dly_315ns_1\.genblk1\[4\]\.dly_binary\.signal_w\[6\]
*251 edgedetect\.dly_315ns_1\.genblk1\[4\]\.dly_binary\.signal_w\[7\]
*252 edgedetect\.dly_315ns_1\.genblk1\[4\]\.dly_binary\.signal_w\[8\]
*253 edgedetect\.dly_315ns_1\.genblk1\[4\]\.dly_binary\.signal_w\[9\]
*254 edgedetect\.dly_315ns_1\.genblk1\[5\]\.dly_binary\.bypass_in
*255 edgedetect\.dly_315ns_1\.genblk1\[5\]\.dly_binary\.out
*256 edgedetect\.dly_315ns_1\.genblk1\[5\]\.dly_binary\.signal_w\[0\]
*257 edgedetect\.dly_315ns_1\.genblk1\[5\]\.dly_binary\.signal_w\[10\]
*258 edgedetect\.dly_315ns_1\.genblk1\[5\]\.dly_binary\.signal_w\[11\]
*259 edgedetect\.dly_315ns_1\.genblk1\[5\]\.dly_binary\.signal_w\[12\]
*260 edgedetect\.dly_315ns_1\.genblk1\[5\]\.dly_binary\.signal_w\[13\]
*261 edgedetect\.dly_315ns_1\.genblk1\[5\]\.dly_binary\.signal_w\[14\]
*262 edgedetect\.dly_315ns_1\.genblk1\[5\]\.dly_binary\.signal_w\[15\]
*263 edgedetect\.dly_315ns_1\.genblk1\[5\]\.dly_binary\.signal_w\[16\]
*264 edgedetect\.dly_315ns_1\.genblk1\[5\]\.dly_binary\.signal_w\[17\]
*265 edgedetect\.dly_315ns_1\.genblk1\[5\]\.dly_binary\.signal_w\[18\]
*266 edgedetect\.dly_315ns_1\.genblk1\[5\]\.dly_binary\.signal_w\[19\]
*267 edgedetect\.dly_315ns_1\.genblk1\[5\]\.dly_binary\.signal_w\[1\]
*268 edgedetect\.dly_315ns_1\.genblk1\[5\]\.dly_binary\.signal_w\[20\]
*269 edgedetect\.dly_315ns_1\.genblk1\[5\]\.dly_binary\.signal_w\[21\]
*270 edgedetect\.dly_315ns_1\.genblk1\[5\]\.dly_binary\.signal_w\[22\]
*271 edgedetect\.dly_315ns_1\.genblk1\[5\]\.dly_binary\.signal_w\[23\]
*272 edgedetect\.dly_315ns_1\.genblk1\[5\]\.dly_binary\.signal_w\[24\]
*273 edgedetect\.dly_315ns_1\.genblk1\[5\]\.dly_binary\.signal_w\[25\]
*274 edgedetect\.dly_315ns_1\.genblk1\[5\]\.dly_binary\.signal_w\[26\]
*275 edgedetect\.dly_315ns_1\.genblk1\[5\]\.dly_binary\.signal_w\[27\]
*276 edgedetect\.dly_315ns_1\.genblk1\[5\]\.dly_binary\.signal_w\[28\]
*277 edgedetect\.dly_315ns_1\.genblk1\[5\]\.dly_binary\.signal_w\[29\]
*278 edgedetect\.dly_315ns_1\.genblk1\[5\]\.dly_binary\.signal_w\[2\]
*279 edgedetect\.dly_315ns_1\.genblk1\[5\]\.dly_binary\.signal_w\[30\]
*280 edgedetect\.dly_315ns_1\.genblk1\[5\]\.dly_binary\.signal_w\[31\]
*281 edgedetect\.dly_315ns_1\.genblk1\[5\]\.dly_binary\.signal_w\[32\]
*282 edgedetect\.dly_315ns_1\.genblk1\[5\]\.dly_binary\.signal_w\[3\]
*283 edgedetect\.dly_315ns_1\.genblk1\[5\]\.dly_binary\.signal_w\[4\]
*284 edgedetect\.dly_315ns_1\.genblk1\[5\]\.dly_binary\.signal_w\[5\]
*285 edgedetect\.dly_315ns_1\.genblk1\[5\]\.dly_binary\.signal_w\[6\]
*286 edgedetect\.dly_315ns_1\.genblk1\[5\]\.dly_binary\.signal_w\[7\]
*287 edgedetect\.dly_315ns_1\.genblk1\[5\]\.dly_binary\.signal_w\[8\]
*288 edgedetect\.dly_315ns_1\.genblk1\[5\]\.dly_binary\.signal_w\[9\]
*289 edgedetect\.ena_in
*290 edgedetect\.start_conv_edge_w
*291 nsample_n_1
*292 nsample_n_2
*293 nsample_n_3
*294 nsample_n_4
*295 nsample_p_1
*296 nsample_p_2
*297 nsample_p_3
*298 nsample_p_4
*299 sample_n_1
*300 sample_n_2
*301 sample_n_3
*302 sample_n_4
*303 sample_p_1
*304 sample_p_2
*305 sample_p_3
*306 sample_p_4
*307 ANTENNA_clkgen\.clkdig_inverter_A
*308 ANTENNA_clkgen\.delay_155ns_1\.enablebuffer_A
*309 ANTENNA_clkgen\.delay_155ns_1\.genblk1\[0\]\.control_invert_A
*310 ANTENNA_clkgen\.delay_155ns_1\.genblk1\[0\]\.dly_binary\.and_bypass_switch_A_N
*311 ANTENNA_clkgen\.delay_155ns_1\.genblk1\[0\]\.dly_binary\.out_mux_S
*312 ANTENNA_clkgen\.delay_155ns_1\.genblk1\[1\]\.control_invert_A
*313 ANTENNA_clkgen\.delay_155ns_1\.genblk1\[1\]\.dly_binary\.and_bypass_switch_A_N
*314 ANTENNA_clkgen\.delay_155ns_1\.genblk1\[1\]\.dly_binary\.out_mux_S
*315 ANTENNA_clkgen\.delay_155ns_1\.genblk1\[2\]\.control_invert_A
*316 ANTENNA_clkgen\.delay_155ns_1\.genblk1\[2\]\.dly_binary\.and_bypass_switch_A_N
*317 ANTENNA_clkgen\.delay_155ns_1\.genblk1\[2\]\.dly_binary\.out_mux_S
*318 ANTENNA_clkgen\.delay_155ns_1\.genblk1\[3\]\.control_invert_A
*319 ANTENNA_clkgen\.delay_155ns_1\.genblk1\[3\]\.dly_binary\.and_bypass_switch_A_N
*320 ANTENNA_clkgen\.delay_155ns_1\.genblk1\[3\]\.dly_binary\.and_bypass_switch_B
*321 ANTENNA_clkgen\.delay_155ns_1\.genblk1\[3\]\.dly_binary\.out_mux_A1
*322 ANTENNA_clkgen\.delay_155ns_1\.genblk1\[3\]\.dly_binary\.out_mux_S
*323 ANTENNA_clkgen\.delay_155ns_1\.genblk1\[4\]\.control_invert_A
*324 ANTENNA_clkgen\.delay_155ns_1\.genblk1\[4\]\.dly_binary\.and_bypass_switch_A_N
*325 ANTENNA_clkgen\.delay_155ns_1\.genblk1\[4\]\.dly_binary\.and_bypass_switch_B
*326 ANTENNA_clkgen\.delay_155ns_1\.genblk1\[4\]\.dly_binary\.out_mux_A0
*327 ANTENNA_clkgen\.delay_155ns_1\.genblk1\[4\]\.dly_binary\.out_mux_A1
*328 ANTENNA_clkgen\.delay_155ns_1\.genblk1\[4\]\.dly_binary\.out_mux_S
*329 ANTENNA_clkgen\.delay_155ns_2\.enablebuffer_A
*330 ANTENNA_clkgen\.delay_155ns_2\.genblk1\[0\]\.control_invert_A
*331 ANTENNA_clkgen\.delay_155ns_2\.genblk1\[0\]\.dly_binary\.and_bypass_switch_A_N
*332 ANTENNA_clkgen\.delay_155ns_2\.genblk1\[0\]\.dly_binary\.and_bypass_switch_B
*333 ANTENNA_clkgen\.delay_155ns_2\.genblk1\[0\]\.dly_binary\.out_mux_A1
*334 ANTENNA_clkgen\.delay_155ns_2\.genblk1\[0\]\.dly_binary\.out_mux_S
*335 ANTENNA_clkgen\.delay_155ns_2\.genblk1\[1\]\.control_invert_A
*336 ANTENNA_clkgen\.delay_155ns_2\.genblk1\[1\]\.dly_binary\.and_bypass_switch_A_N
*337 ANTENNA_clkgen\.delay_155ns_2\.genblk1\[1\]\.dly_binary\.out_mux_S
*338 ANTENNA_clkgen\.delay_155ns_2\.genblk1\[2\]\.control_invert_A
*339 ANTENNA_clkgen\.delay_155ns_2\.genblk1\[2\]\.dly_binary\.and_bypass_switch_A_N
*340 ANTENNA_clkgen\.delay_155ns_2\.genblk1\[2\]\.dly_binary\.out_mux_S
*341 ANTENNA_clkgen\.delay_155ns_2\.genblk1\[3\]\.control_invert_A
*342 ANTENNA_clkgen\.delay_155ns_2\.genblk1\[3\]\.dly_binary\.and_bypass_switch_A_N
*343 ANTENNA_clkgen\.delay_155ns_2\.genblk1\[3\]\.dly_binary\.out_mux_S
*344 ANTENNA_clkgen\.delay_155ns_2\.genblk1\[4\]\.control_invert_A
*345 ANTENNA_clkgen\.delay_155ns_2\.genblk1\[4\]\.dly_binary\.out_mux_A0
*346 ANTENNA_clkgen\.delay_155ns_3\.enablebuffer_A
*347 ANTENNA_clkgen\.delay_155ns_3\.genblk1\[0\]\.control_invert_A
*348 ANTENNA_clkgen\.delay_155ns_3\.genblk1\[0\]\.dly_binary\.and_bypass_switch_A_N
*349 ANTENNA_clkgen\.delay_155ns_3\.genblk1\[0\]\.dly_binary\.out_mux_S
*350 ANTENNA_clkgen\.delay_155ns_3\.genblk1\[1\]\.control_invert_A
*351 ANTENNA_clkgen\.delay_155ns_3\.genblk1\[2\]\.control_invert_A
*352 ANTENNA_clkgen\.delay_155ns_3\.genblk1\[3\]\.control_invert_A
*353 ANTENNA_clkgen\.delay_155ns_3\.genblk1\[4\]\.control_invert_A
*354 ANTENNA_edgedetect\.dly_315ns_1\.enablebuffer_A
*355 ANTENNA_edgedetect\.dly_315ns_1\.genblk1\[0\]\.bypass_enable_A
*356 ANTENNA_edgedetect\.dly_315ns_1\.genblk1\[0\]\.control_invert_A
*357 ANTENNA_edgedetect\.dly_315ns_1\.genblk1\[0\]\.dly_binary\.and_bypass_switch_A_N
*358 ANTENNA_edgedetect\.dly_315ns_1\.genblk1\[0\]\.dly_binary\.and_bypass_switch_B
*359 ANTENNA_edgedetect\.dly_315ns_1\.genblk1\[0\]\.dly_binary\.out_mux_A1
*360 ANTENNA_edgedetect\.dly_315ns_1\.genblk1\[0\]\.dly_binary\.out_mux_S
*361 ANTENNA_edgedetect\.dly_315ns_1\.genblk1\[1\]\.bypass_enable_A
*362 ANTENNA_edgedetect\.dly_315ns_1\.genblk1\[1\]\.control_invert_A
*363 ANTENNA_edgedetect\.dly_315ns_1\.genblk1\[1\]\.dly_binary\.and_bypass_switch_A_N
*364 ANTENNA_edgedetect\.dly_315ns_1\.genblk1\[1\]\.dly_binary\.out_mux_S
*365 ANTENNA_edgedetect\.dly_315ns_1\.genblk1\[2\]\.bypass_enable_A
*366 ANTENNA_edgedetect\.dly_315ns_1\.genblk1\[2\]\.control_invert_A
*367 ANTENNA_edgedetect\.dly_315ns_1\.genblk1\[2\]\.dly_binary\.and_bypass_switch_A_N
*368 ANTENNA_edgedetect\.dly_315ns_1\.genblk1\[2\]\.dly_binary\.out_mux_S
*369 ANTENNA_edgedetect\.dly_315ns_1\.genblk1\[3\]\.bypass_enable_A
*370 ANTENNA_edgedetect\.dly_315ns_1\.genblk1\[3\]\.control_invert_A
*371 ANTENNA_edgedetect\.dly_315ns_1\.genblk1\[3\]\.dly_binary\.and_bypass_switch_A_N
*372 ANTENNA_edgedetect\.dly_315ns_1\.genblk1\[3\]\.dly_binary\.out_mux_S
*373 ANTENNA_edgedetect\.dly_315ns_1\.genblk1\[4\]\.bypass_enable_A
*374 ANTENNA_edgedetect\.dly_315ns_1\.genblk1\[4\]\.control_invert_A
*375 ANTENNA_edgedetect\.dly_315ns_1\.genblk1\[4\]\.dly_binary\.and_bypass_switch_A_N
*376 ANTENNA_edgedetect\.dly_315ns_1\.genblk1\[4\]\.dly_binary\.out_mux_S
*377 ANTENNA_edgedetect\.dly_315ns_1\.genblk1\[5\]\.bypass_enable_A
*378 ANTENNA_edgedetect\.dly_315ns_1\.genblk1\[5\]\.control_invert_A
*379 ANTENNA_edgedetect\.dly_315ns_1\.genblk1\[5\]\.dly_binary\.and_bypass_switch_A_N
*380 ANTENNA_edgedetect\.dly_315ns_1\.genblk1\[5\]\.dly_binary\.out_mux_A0
*381 ANTENNA_edgedetect\.dly_315ns_1\.genblk1\[5\]\.dly_binary\.out_mux_S
*382 ANTENNA_edgedetect\.nor1_B_N
*383 ANTENNA_inbuf_1_A
*384 ANTENNA_inbuf_2_A
*385 ANTENNA_inbuf_3_A
*386 ANTENNA_outbuf_1_A
*387 ANTENNA_sampledly01_A
*388 ANTENNA_sampledly02_A
*389 ANTENNA_sampledly03_A
*390 ANTENNA_sampledly04_A
*391 FILLER_0_122
*392 FILLER_0_125
*393 FILLER_0_15
*394 FILLER_0_152
*395 FILLER_0_156
*396 FILLER_0_183
*397 FILLER_0_187
*398 FILLER_0_214
*399 FILLER_0_218
*400 FILLER_0_223
*401 FILLER_0_239
*402 FILLER_0_246
*403 FILLER_0_249
*404 FILLER_0_261
*405 FILLER_0_275
*406 FILLER_0_280
*407 FILLER_0_29
*408 FILLER_0_293
*409 FILLER_0_3
*410 FILLER_0_307
*411 FILLER_0_311
*412 FILLER_0_315
*413 FILLER_0_32
*414 FILLER_0_327
*415 FILLER_0_339
*416 FILLER_0_342
*417 FILLER_0_60
*418 FILLER_0_63
*419 FILLER_0_91
*420 FILLER_0_94
*421 FILLER_10_121
*422 FILLER_10_127
*423 FILLER_10_153
*424 FILLER_10_156
*425 FILLER_10_16
*426 FILLER_10_183
*427 FILLER_10_212
*428 FILLER_10_216
*429 FILLER_10_218
*430 FILLER_10_245
*431 FILLER_10_251
*432 FILLER_10_277
*433 FILLER_10_280
*434 FILLER_10_284
*435 FILLER_10_29
*436 FILLER_10_290
*437 FILLER_10_296
*438 FILLER_10_3
*439 FILLER_10_32
*440 FILLER_10_325
*441 FILLER_10_331
*442 FILLER_10_337
*443 FILLER_10_342
*444 FILLER_10_40
*445 FILLER_10_69
*446 FILLER_10_76
*447 FILLER_10_89
*448 FILLER_10_9
*449 FILLER_10_94
*450 FILLER_11_122
*451 FILLER_11_125
*452 FILLER_11_129
*453 FILLER_11_155
*454 FILLER_11_184
*455 FILLER_11_187
*456 FILLER_11_192
*457 FILLER_11_196
*458 FILLER_11_222
*459 FILLER_11_231
*460 FILLER_11_240
*461 FILLER_11_246
*462 FILLER_11_249
*463 FILLER_11_276
*464 FILLER_11_282
*465 FILLER_11_288
*466 FILLER_11_294
*467 FILLER_11_3
*468 FILLER_11_30
*469 FILLER_11_300
*470 FILLER_11_306
*471 FILLER_11_311
*472 FILLER_11_315
*473 FILLER_11_321
*474 FILLER_11_327
*475 FILLER_11_333
*476 FILLER_11_339
*477 FILLER_11_343
*478 FILLER_11_59
*479 FILLER_11_63
*480 FILLER_11_67
*481 FILLER_11_93
*482 FILLER_12_106
*483 FILLER_12_114
*484 FILLER_12_140
*485 FILLER_12_153
*486 FILLER_12_156
*487 FILLER_12_16
*488 FILLER_12_164
*489 FILLER_12_174
*490 FILLER_12_207
*491 FILLER_12_214
*492 FILLER_12_218
*493 FILLER_12_224
*494 FILLER_12_250
*495 FILLER_12_259
*496 FILLER_12_266
*497 FILLER_12_273
*498 FILLER_12_280
*499 FILLER_12_284
*500 FILLER_12_29
*501 FILLER_12_290
*502 FILLER_12_296
*503 FILLER_12_3
*504 FILLER_12_302
*505 FILLER_12_308
*506 FILLER_12_314
*507 FILLER_12_32
*508 FILLER_12_320
*509 FILLER_12_326
*510 FILLER_12_332
*511 FILLER_12_338
*512 FILLER_12_342
*513 FILLER_12_59
*514 FILLER_12_65
*515 FILLER_12_9
*516 FILLER_12_91
*517 FILLER_12_94
*518 FILLER_13_113
*519 FILLER_13_122
*520 FILLER_13_125
*521 FILLER_13_152
*522 FILLER_13_158
*523 FILLER_13_184
*524 FILLER_13_187
*525 FILLER_13_215
*526 FILLER_13_244
*527 FILLER_13_249
*528 FILLER_13_256
*529 FILLER_13_265
*530 FILLER_13_294
*531 FILLER_13_3
*532 FILLER_13_300
*533 FILLER_13_306
*534 FILLER_13_31
*535 FILLER_13_311
*536 FILLER_13_342
*537 FILLER_13_60
*538 FILLER_13_63
*539 FILLER_13_74
*540 FILLER_13_84
*541 FILLER_14_124
*542 FILLER_14_153
*543 FILLER_14_156
*544 FILLER_14_16
*545 FILLER_14_164
*546 FILLER_14_173
*547 FILLER_14_202
*548 FILLER_14_211
*549 FILLER_14_218
*550 FILLER_14_245
*551 FILLER_14_274
*552 FILLER_14_278
*553 FILLER_14_280
*554 FILLER_14_29
*555 FILLER_14_3
*556 FILLER_14_307
*557 FILLER_14_313
*558 FILLER_14_32
*559 FILLER_14_339
*560 FILLER_14_342
*561 FILLER_14_36
*562 FILLER_14_62
*563 FILLER_14_91
*564 FILLER_14_94
*565 FILLER_14_98
*566 FILLER_15_122
*567 FILLER_15_125
*568 FILLER_15_137
*569 FILLER_15_146
*570 FILLER_15_175
*571 FILLER_15_184
*572 FILLER_15_187
*573 FILLER_15_192
*574 FILLER_15_196
*575 FILLER_15_222
*576 FILLER_15_231
*577 FILLER_15_240
*578 FILLER_15_246
*579 FILLER_15_249
*580 FILLER_15_276
*581 FILLER_15_282
*582 FILLER_15_3
*583 FILLER_15_308
*584 FILLER_15_31
*585 FILLER_15_311
*586 FILLER_15_338
*587 FILLER_15_60
*588 FILLER_15_63
*589 FILLER_15_67
*590 FILLER_15_93
*591 FILLER_16_124
*592 FILLER_16_153
*593 FILLER_16_156
*594 FILLER_16_16
*595 FILLER_16_164
*596 FILLER_16_174
*597 FILLER_16_181
*598 FILLER_16_210
*599 FILLER_16_216
*600 FILLER_16_218
*601 FILLER_16_245
*602 FILLER_16_274
*603 FILLER_16_278
*604 FILLER_16_280
*605 FILLER_16_29
*606 FILLER_16_3
*607 FILLER_16_307
*608 FILLER_16_32
*609 FILLER_16_336
*610 FILLER_16_340
*611 FILLER_16_342
*612 FILLER_16_36
*613 FILLER_16_62
*614 FILLER_16_91
*615 FILLER_16_94
*616 FILLER_16_98
*617 FILLER_17_122
*618 FILLER_17_125
*619 FILLER_17_129
*620 FILLER_17_155
*621 FILLER_17_184
*622 FILLER_17_187
*623 FILLER_17_19
*624 FILLER_17_214
*625 FILLER_17_220
*626 FILLER_17_246
*627 FILLER_17_249
*628 FILLER_17_276
*629 FILLER_17_3
*630 FILLER_17_305
*631 FILLER_17_309
*632 FILLER_17_311
*633 FILLER_17_316
*634 FILLER_17_323
*635 FILLER_17_329
*636 FILLER_17_335
*637 FILLER_17_341
*638 FILLER_17_48
*639 FILLER_17_58
*640 FILLER_17_63
*641 FILLER_17_67
*642 FILLER_17_9
*643 FILLER_17_93
*644 FILLER_18_124
*645 FILLER_18_15
*646 FILLER_18_153
*647 FILLER_18_156
*648 FILLER_18_164
*649 FILLER_18_172
*650 FILLER_18_198
*651 FILLER_18_207
*652 FILLER_18_214
*653 FILLER_18_218
*654 FILLER_18_245
*655 FILLER_18_274
*656 FILLER_18_278
*657 FILLER_18_280
*658 FILLER_18_29
*659 FILLER_18_292
*660 FILLER_18_3
*661 FILLER_18_306
*662 FILLER_18_313
*663 FILLER_18_319
*664 FILLER_18_32
*665 FILLER_18_325
*666 FILLER_18_331
*667 FILLER_18_337
*668 FILLER_18_342
*669 FILLER_18_36
*670 FILLER_18_62
*671 FILLER_18_91
*672 FILLER_18_94
*673 FILLER_18_98
*674 FILLER_19_122
*675 FILLER_19_125
*676 FILLER_19_15
*677 FILLER_19_153
*678 FILLER_19_156
*679 FILLER_19_184
*680 FILLER_19_187
*681 FILLER_19_215
*682 FILLER_19_218
*683 FILLER_19_246
*684 FILLER_19_249
*685 FILLER_19_276
*686 FILLER_19_280
*687 FILLER_19_29
*688 FILLER_19_292
*689 FILLER_19_3
*690 FILLER_19_306
*691 FILLER_19_311
*692 FILLER_19_319
*693 FILLER_19_32
*694 FILLER_19_325
*695 FILLER_19_331
*696 FILLER_19_337
*697 FILLER_19_342
*698 FILLER_19_60
*699 FILLER_19_63
*700 FILLER_19_91
*701 FILLER_19_94
*702 FILLER_1_122
*703 FILLER_1_125
*704 FILLER_1_129
*705 FILLER_1_155
*706 FILLER_1_184
*707 FILLER_1_187
*708 FILLER_1_214
*709 FILLER_1_243
*710 FILLER_1_247
*711 FILLER_1_249
*712 FILLER_1_254
*713 FILLER_1_260
*714 FILLER_1_266
*715 FILLER_1_272
*716 FILLER_1_278
*717 FILLER_1_284
*718 FILLER_1_290
*719 FILLER_1_296
*720 FILLER_1_3
*721 FILLER_1_302
*722 FILLER_1_308
*723 FILLER_1_31
*724 FILLER_1_311
*725 FILLER_1_323
*726 FILLER_1_335
*727 FILLER_1_343
*728 FILLER_1_60
*729 FILLER_1_63
*730 FILLER_1_67
*731 FILLER_1_93
*732 FILLER_2_124
*733 FILLER_2_153
*734 FILLER_2_156
*735 FILLER_2_16
*736 FILLER_2_164
*737 FILLER_2_171
*738 FILLER_2_175
*739 FILLER_2_201
*740 FILLER_2_211
*741 FILLER_2_218
*742 FILLER_2_225
*743 FILLER_2_234
*744 FILLER_2_243
*745 FILLER_2_250
*746 FILLER_2_257
*747 FILLER_2_263
*748 FILLER_2_269
*749 FILLER_2_275
*750 FILLER_2_280
*751 FILLER_2_284
*752 FILLER_2_29
*753 FILLER_2_290
*754 FILLER_2_296
*755 FILLER_2_3
*756 FILLER_2_302
*757 FILLER_2_308
*758 FILLER_2_314
*759 FILLER_2_32
*760 FILLER_2_326