*SPEF "ieee 1481-1999"
*DESIGN "adc_clkgen_with_edgedetect"
*DATE "11:11:11 Fri 11 11, 1111"
*VENDOR "OpenRCX"
*PROGRAM "Parallel Extraction"
*VERSION "1.0"
*DESIGN_FLOW "NAME_SCOPE LOCAL" "PIN_CAP NONE"
*DIVIDER /
*DELIMITER :
*BUS_DELIMITER []
*T_UNIT 1 NS
*C_UNIT 1 PF
*R_UNIT 1 OHM
*L_UNIT 1 HENRY

*NAME_MAP
*3 clk_comp_out
*4 clk_dig_out
*5 dlycontrol1_in[0]
*6 dlycontrol1_in[1]
*7 dlycontrol1_in[2]
*8 dlycontrol1_in[3]
*9 dlycontrol1_in[4]
*10 dlycontrol2_in[0]
*11 dlycontrol2_in[1]
*12 dlycontrol2_in[2]
*13 dlycontrol2_in[3]
*14 dlycontrol2_in[4]
*15 dlycontrol3_in[0]
*16 dlycontrol3_in[1]
*17 dlycontrol3_in[2]
*18 dlycontrol3_in[3]
*19 dlycontrol3_in[4]
*20 dlycontrol4_in[0]
*21 dlycontrol4_in[1]
*22 dlycontrol4_in[2]
*23 dlycontrol4_in[3]
*24 dlycontrol4_in[4]
*25 dlycontrol4_in[5]
*26 ena_in
*27 enable_dlycontrol_in
*28 ndecision_finish_in
*29 nsample_n_in
*30 nsample_n_out
*31 nsample_p_in
*32 nsample_p_out
*33 sample_n_in
*34 sample_n_out
*35 sample_p_in
*36 sample_p_out
*37 start_conv_in
*38 clkgen\.clk_comp_out
*39 clkgen\.clk_dig_delayed_w
*40 clkgen\.clk_dig_out
*41 clkgen\.delay_155ns_1\.bypass_enable_w\[0\]
*42 clkgen\.delay_155ns_1\.bypass_enable_w\[1\]
*43 clkgen\.delay_155ns_1\.bypass_enable_w\[2\]
*44 clkgen\.delay_155ns_1\.bypass_enable_w\[3\]
*45 clkgen\.delay_155ns_1\.bypass_enable_w\[4\]
*46 clkgen\.delay_155ns_1\.enable_dlycontrol_w
*47 clkgen\.delay_155ns_1\.genblk1\[0\]\.dly_binary\.bypass_in
*48 clkgen\.delay_155ns_1\.genblk1\[0\]\.dly_binary\.in
*49 clkgen\.delay_155ns_1\.genblk1\[0\]\.dly_binary\.out
*50 clkgen\.delay_155ns_1\.genblk1\[0\]\.dly_binary\.signal_w\[0\]
*51 clkgen\.delay_155ns_1\.genblk1\[0\]\.dly_binary\.signal_w\[1\]
*52 clkgen\.delay_155ns_1\.genblk1\[1\]\.dly_binary\.bypass_in
*53 clkgen\.delay_155ns_1\.genblk1\[1\]\.dly_binary\.out
*54 clkgen\.delay_155ns_1\.genblk1\[1\]\.dly_binary\.signal_w\[0\]
*55 clkgen\.delay_155ns_1\.genblk1\[1\]\.dly_binary\.signal_w\[1\]
*56 clkgen\.delay_155ns_1\.genblk1\[1\]\.dly_binary\.signal_w\[2\]
*57 clkgen\.delay_155ns_1\.genblk1\[2\]\.dly_binary\.bypass_in
*58 clkgen\.delay_155ns_1\.genblk1\[2\]\.dly_binary\.out
*59 clkgen\.delay_155ns_1\.genblk1\[2\]\.dly_binary\.signal_w\[0\]
*60 clkgen\.delay_155ns_1\.genblk1\[2\]\.dly_binary\.signal_w\[1\]
*61 clkgen\.delay_155ns_1\.genblk1\[2\]\.dly_binary\.signal_w\[2\]
*62 clkgen\.delay_155ns_1\.genblk1\[2\]\.dly_binary\.signal_w\[3\]
*63 clkgen\.delay_155ns_1\.genblk1\[2\]\.dly_binary\.signal_w\[4\]
*64 clkgen\.delay_155ns_1\.genblk1\[3\]\.dly_binary\.bypass_in
*65 clkgen\.delay_155ns_1\.genblk1\[3\]\.dly_binary\.out
*66 clkgen\.delay_155ns_1\.genblk1\[3\]\.dly_binary\.signal_w\[0\]
*67 clkgen\.delay_155ns_1\.genblk1\[3\]\.dly_binary\.signal_w\[1\]
*68 clkgen\.delay_155ns_1\.genblk1\[3\]\.dly_binary\.signal_w\[2\]
*69 clkgen\.delay_155ns_1\.genblk1\[3\]\.dly_binary\.signal_w\[3\]
*70 clkgen\.delay_155ns_1\.genblk1\[3\]\.dly_binary\.signal_w\[4\]
*71 clkgen\.delay_155ns_1\.genblk1\[3\]\.dly_binary\.signal_w\[5\]
*72 clkgen\.delay_155ns_1\.genblk1\[3\]\.dly_binary\.signal_w\[6\]
*73 clkgen\.delay_155ns_1\.genblk1\[3\]\.dly_binary\.signal_w\[7\]
*74 clkgen\.delay_155ns_1\.genblk1\[3\]\.dly_binary\.signal_w\[8\]
*75 clkgen\.delay_155ns_1\.genblk1\[4\]\.dly_binary\.bypass_in
*76 clkgen\.delay_155ns_1\.genblk1\[4\]\.dly_binary\.out
*77 clkgen\.delay_155ns_1\.genblk1\[4\]\.dly_binary\.signal_w\[0\]
*78 clkgen\.delay_155ns_1\.genblk1\[4\]\.dly_binary\.signal_w\[10\]
*79 clkgen\.delay_155ns_1\.genblk1\[4\]\.dly_binary\.signal_w\[11\]
*80 clkgen\.delay_155ns_1\.genblk1\[4\]\.dly_binary\.signal_w\[12\]
*81 clkgen\.delay_155ns_1\.genblk1\[4\]\.dly_binary\.signal_w\[13\]
*82 clkgen\.delay_155ns_1\.genblk1\[4\]\.dly_binary\.signal_w\[14\]
*83 clkgen\.delay_155ns_1\.genblk1\[4\]\.dly_binary\.signal_w\[15\]
*84 clkgen\.delay_155ns_1\.genblk1\[4\]\.dly_binary\.signal_w\[16\]
*85 clkgen\.delay_155ns_1\.genblk1\[4\]\.dly_binary\.signal_w\[1\]
*86 clkgen\.delay_155ns_1\.genblk1\[4\]\.dly_binary\.signal_w\[2\]
*87 clkgen\.delay_155ns_1\.genblk1\[4\]\.dly_binary\.signal_w\[3\]
*88 clkgen\.delay_155ns_1\.genblk1\[4\]\.dly_binary\.signal_w\[4\]
*89 clkgen\.delay_155ns_1\.genblk1\[4\]\.dly_binary\.signal_w\[5\]
*90 clkgen\.delay_155ns_1\.genblk1\[4\]\.dly_binary\.signal_w\[6\]
*91 clkgen\.delay_155ns_1\.genblk1\[4\]\.dly_binary\.signal_w\[7\]
*92 clkgen\.delay_155ns_1\.genblk1\[4\]\.dly_binary\.signal_w\[8\]
*93 clkgen\.delay_155ns_1\.genblk1\[4\]\.dly_binary\.signal_w\[9\]
*94 clkgen\.delay_155ns_2\.bypass_enable_w\[0\]
*95 clkgen\.delay_155ns_2\.bypass_enable_w\[1\]
*96 clkgen\.delay_155ns_2\.bypass_enable_w\[2\]
*97 clkgen\.delay_155ns_2\.bypass_enable_w\[3\]
*98 clkgen\.delay_155ns_2\.bypass_enable_w\[4\]
*99 clkgen\.delay_155ns_2\.enable_dlycontrol_w
*100 clkgen\.delay_155ns_2\.genblk1\[0\]\.dly_binary\.bypass_in
*101 clkgen\.delay_155ns_2\.genblk1\[0\]\.dly_binary\.out
*102 clkgen\.delay_155ns_2\.genblk1\[0\]\.dly_binary\.signal_w\[0\]
*103 clkgen\.delay_155ns_2\.genblk1\[0\]\.dly_binary\.signal_w\[1\]
*104 clkgen\.delay_155ns_2\.genblk1\[1\]\.dly_binary\.bypass_in
*105 clkgen\.delay_155ns_2\.genblk1\[1\]\.dly_binary\.out
*106 clkgen\.delay_155ns_2\.genblk1\[1\]\.dly_binary\.signal_w\[0\]
*107 clkgen\.delay_155ns_2\.genblk1\[1\]\.dly_binary\.signal_w\[1\]
*108 clkgen\.delay_155ns_2\.genblk1\[1\]\.dly_binary\.signal_w\[2\]
*109 clkgen\.delay_155ns_2\.genblk1\[2\]\.dly_binary\.bypass_in
*110 clkgen\.delay_155ns_2\.genblk1\[2\]\.dly_binary\.out
*111 clkgen\.delay_155ns_2\.genblk1\[2\]\.dly_binary\.signal_w\[0\]
*112 clkgen\.delay_155ns_2\.genblk1\[2\]\.dly_binary\.signal_w\[1\]
*113 clkgen\.delay_155ns_2\.genblk1\[2\]\.dly_binary\.signal_w\[2\]
*114 clkgen\.delay_155ns_2\.genblk1\[2\]\.dly_binary\.signal_w\[3\]
*115 clkgen\.delay_155ns_2\.genblk1\[2\]\.dly_binary\.signal_w\[4\]
*116 clkgen\.delay_155ns_2\.genblk1\[3\]\.dly_binary\.bypass_in
*117 clkgen\.delay_155ns_2\.genblk1\[3\]\.dly_binary\.out
*118 clkgen\.delay_155ns_2\.genblk1\[3\]\.dly_binary\.signal_w\[0\]
*119 clkgen\.delay_155ns_2\.genblk1\[3\]\.dly_binary\.signal_w\[1\]
*120 clkgen\.delay_155ns_2\.genblk1\[3\]\.dly_binary\.signal_w\[2\]
*121 clkgen\.delay_155ns_2\.genblk1\[3\]\.dly_binary\.signal_w\[3\]
*122 clkgen\.delay_155ns_2\.genblk1\[3\]\.dly_binary\.signal_w\[4\]
*123 clkgen\.delay_155ns_2\.genblk1\[3\]\.dly_binary\.signal_w\[5\]
*124 clkgen\.delay_155ns_2\.genblk1\[3\]\.dly_binary\.signal_w\[6\]
*125 clkgen\.delay_155ns_2\.genblk1\[3\]\.dly_binary\.signal_w\[7\]
*126 clkgen\.delay_155ns_2\.genblk1\[3\]\.dly_binary\.signal_w\[8\]
*127 clkgen\.delay_155ns_2\.genblk1\[4\]\.dly_binary\.bypass_in
*128 clkgen\.delay_155ns_2\.genblk1\[4\]\.dly_binary\.signal_w\[0\]
*129 clkgen\.delay_155ns_2\.genblk1\[4\]\.dly_binary\.signal_w\[10\]
*130 clkgen\.delay_155ns_2\.genblk1\[4\]\.dly_binary\.signal_w\[11\]
*131 clkgen\.delay_155ns_2\.genblk1\[4\]\.dly_binary\.signal_w\[12\]
*132 clkgen\.delay_155ns_2\.genblk1\[4\]\.dly_binary\.signal_w\[13\]
*133 clkgen\.delay_155ns_2\.genblk1\[4\]\.dly_binary\.signal_w\[14\]
*134 clkgen\.delay_155ns_2\.genblk1\[4\]\.dly_binary\.signal_w\[15\]
*135 clkgen\.delay_155ns_2\.genblk1\[4\]\.dly_binary\.signal_w\[16\]
*136 clkgen\.delay_155ns_2\.genblk1\[4\]\.dly_binary\.signal_w\[1\]
*137 clkgen\.delay_155ns_2\.genblk1\[4\]\.dly_binary\.signal_w\[2\]
*138 clkgen\.delay_155ns_2\.genblk1\[4\]\.dly_binary\.signal_w\[3\]
*139 clkgen\.delay_155ns_2\.genblk1\[4\]\.dly_binary\.signal_w\[4\]
*140 clkgen\.delay_155ns_2\.genblk1\[4\]\.dly_binary\.signal_w\[5\]
*141 clkgen\.delay_155ns_2\.genblk1\[4\]\.dly_binary\.signal_w\[6\]
*142 clkgen\.delay_155ns_2\.genblk1\[4\]\.dly_binary\.signal_w\[7\]
*143 clkgen\.delay_155ns_2\.genblk1\[4\]\.dly_binary\.signal_w\[8\]
*144 clkgen\.delay_155ns_2\.genblk1\[4\]\.dly_binary\.signal_w\[9\]
*145 clkgen\.delay_155ns_3\.bypass_enable_w\[0\]
*146 clkgen\.delay_155ns_3\.bypass_enable_w\[1\]
*147 clkgen\.delay_155ns_3\.bypass_enable_w\[2\]
*148 clkgen\.delay_155ns_3\.bypass_enable_w\[3\]
*149 clkgen\.delay_155ns_3\.bypass_enable_w\[4\]
*150 clkgen\.delay_155ns_3\.enable_dlycontrol_w
*151 clkgen\.delay_155ns_3\.genblk1\[0\]\.dly_binary\.bypass_in
*152 clkgen\.delay_155ns_3\.genblk1\[0\]\.dly_binary\.in
*153 clkgen\.delay_155ns_3\.genblk1\[0\]\.dly_binary\.out
*154 clkgen\.delay_155ns_3\.genblk1\[0\]\.dly_binary\.signal_w\[0\]
*155 clkgen\.delay_155ns_3\.genblk1\[0\]\.dly_binary\.signal_w\[1\]
*156 clkgen\.delay_155ns_3\.genblk1\[1\]\.dly_binary\.bypass_in
*157 clkgen\.delay_155ns_3\.genblk1\[1\]\.dly_binary\.out
*158 clkgen\.delay_155ns_3\.genblk1\[1\]\.dly_binary\.signal_w\[0\]
*159 clkgen\.delay_155ns_3\.genblk1\[1\]\.dly_binary\.signal_w\[1\]
*160 clkgen\.delay_155ns_3\.genblk1\[1\]\.dly_binary\.signal_w\[2\]
*161 clkgen\.delay_155ns_3\.genblk1\[2\]\.dly_binary\.bypass_in
*162 clkgen\.delay_155ns_3\.genblk1\[2\]\.dly_binary\.out
*163 clkgen\.delay_155ns_3\.genblk1\[2\]\.dly_binary\.signal_w\[0\]
*164 clkgen\.delay_155ns_3\.genblk1\[2\]\.dly_binary\.signal_w\[1\]
*165 clkgen\.delay_155ns_3\.genblk1\[2\]\.dly_binary\.signal_w\[2\]
*166 clkgen\.delay_155ns_3\.genblk1\[2\]\.dly_binary\.signal_w\[3\]
*167 clkgen\.delay_155ns_3\.genblk1\[2\]\.dly_binary\.signal_w\[4\]
*168 clkgen\.delay_155ns_3\.genblk1\[3\]\.dly_binary\.bypass_in
*169 clkgen\.delay_155ns_3\.genblk1\[3\]\.dly_binary\.out
*170 clkgen\.delay_155ns_3\.genblk1\[3\]\.dly_binary\.signal_w\[0\]
*171 clkgen\.delay_155ns_3\.genblk1\[3\]\.dly_binary\.signal_w\[1\]
*172 clkgen\.delay_155ns_3\.genblk1\[3\]\.dly_binary\.signal_w\[2\]
*173 clkgen\.delay_155ns_3\.genblk1\[3\]\.dly_binary\.signal_w\[3\]
*174 clkgen\.delay_155ns_3\.genblk1\[3\]\.dly_binary\.signal_w\[4\]
*175 clkgen\.delay_155ns_3\.genblk1\[3\]\.dly_binary\.signal_w\[5\]
*176 clkgen\.delay_155ns_3\.genblk1\[3\]\.dly_binary\.signal_w\[6\]
*177 clkgen\.delay_155ns_3\.genblk1\[3\]\.dly_binary\.signal_w\[7\]
*178 clkgen\.delay_155ns_3\.genblk1\[3\]\.dly_binary\.signal_w\[8\]
*179 clkgen\.delay_155ns_3\.genblk1\[4\]\.dly_binary\.bypass_in
*180 clkgen\.delay_155ns_3\.genblk1\[4\]\.dly_binary\.signal_w\[0\]
*181 clkgen\.delay_155ns_3\.genblk1\[4\]\.dly_binary\.signal_w\[10\]
*182 clkgen\.delay_155ns_3\.genblk1\[4\]\.dly_binary\.signal_w\[11\]
*183 clkgen\.delay_155ns_3\.genblk1\[4\]\.dly_binary\.signal_w\[12\]
*184 clkgen\.delay_155ns_3\.genblk1\[4\]\.dly_binary\.signal_w\[13\]
*185 clkgen\.delay_155ns_3\.genblk1\[4\]\.dly_binary\.signal_w\[14\]
*186 clkgen\.delay_155ns_3\.genblk1\[4\]\.dly_binary\.signal_w\[15\]
*187 clkgen\.delay_155ns_3\.genblk1\[4\]\.dly_binary\.signal_w\[16\]
*188 clkgen\.delay_155ns_3\.genblk1\[4\]\.dly_binary\.signal_w\[1\]
*189 clkgen\.delay_155ns_3\.genblk1\[4\]\.dly_binary\.signal_w\[2\]
*190 clkgen\.delay_155ns_3\.genblk1\[4\]\.dly_binary\.signal_w\[3\]
*191 clkgen\.delay_155ns_3\.genblk1\[4\]\.dly_binary\.signal_w\[4\]
*192 clkgen\.delay_155ns_3\.genblk1\[4\]\.dly_binary\.signal_w\[5\]
*193 clkgen\.delay_155ns_3\.genblk1\[4\]\.dly_binary\.signal_w\[6\]
*194 clkgen\.delay_155ns_3\.genblk1\[4\]\.dly_binary\.signal_w\[7\]
*195 clkgen\.delay_155ns_3\.genblk1\[4\]\.dly_binary\.signal_w\[8\]
*196 clkgen\.delay_155ns_3\.genblk1\[4\]\.dly_binary\.signal_w\[9\]
*197 clkgen\.enable_loop_in
*198 edgedetect\.dly_315ns_1\.bypass_enable_w\[0\]
*199 edgedetect\.dly_315ns_1\.bypass_enable_w\[1\]
*200 edgedetect\.dly_315ns_1\.bypass_enable_w\[2\]
*201 edgedetect\.dly_315ns_1\.bypass_enable_w\[3\]
*202 edgedetect\.dly_315ns_1\.bypass_enable_w\[4\]
*203 edgedetect\.dly_315ns_1\.bypass_enable_w\[5\]
*204 edgedetect\.dly_315ns_1\.enable_dlycontrol_w
*205 edgedetect\.dly_315ns_1\.genblk1\[0\]\.dly_binary\.bypass_in
*206 edgedetect\.dly_315ns_1\.genblk1\[0\]\.dly_binary\.in
*207 edgedetect\.dly_315ns_1\.genblk1\[0\]\.dly_binary\.out
*208 edgedetect\.dly_315ns_1\.genblk1\[0\]\.dly_binary\.signal_w\[0\]
*209 edgedetect\.dly_315ns_1\.genblk1\[0\]\.dly_binary\.signal_w\[1\]
*210 edgedetect\.dly_315ns_1\.genblk1\[1\]\.dly_binary\.bypass_in
*211 edgedetect\.dly_315ns_1\.genblk1\[1\]\.dly_binary\.out
*212 edgedetect\.dly_315ns_1\.genblk1\[1\]\.dly_binary\.signal_w\[0\]
*213 edgedetect\.dly_315ns_1\.genblk1\[1\]\.dly_binary\.signal_w\[1\]
*214 edgedetect\.dly_315ns_1\.genblk1\[1\]\.dly_binary\.signal_w\[2\]
*215 edgedetect\.dly_315ns_1\.genblk1\[2\]\.dly_binary\.bypass_in
*216 edgedetect\.dly_315ns_1\.genblk1\[2\]\.dly_binary\.out
*217 edgedetect\.dly_315ns_1\.genblk1\[2\]\.dly_binary\.signal_w\[0\]
*218 edgedetect\.dly_315ns_1\.genblk1\[2\]\.dly_binary\.signal_w\[1\]
*219 edgedetect\.dly_315ns_1\.genblk1\[2\]\.dly_binary\.signal_w\[2\]
*220 edgedetect\.dly_315ns_1\.genblk1\[2\]\.dly_binary\.signal_w\[3\]
*221 edgedetect\.dly_315ns_1\.genblk1\[2\]\.dly_binary\.signal_w\[4\]
*222 edgedetect\.dly_315ns_1\.genblk1\[3\]\.dly_binary\.bypass_in
*223 edgedetect\.dly_315ns_1\.genblk1\[3\]\.dly_binary\.out
*224 edgedetect\.dly_315ns_1\.genblk1\[3\]\.dly_binary\.signal_w\[0\]
*225 edgedetect\.dly_315ns_1\.genblk1\[3\]\.dly_binary\.signal_w\[1\]
*226 edgedetect\.dly_315ns_1\.genblk1\[3\]\.dly_binary\.signal_w\[2\]
*227 edgedetect\.dly_315ns_1\.genblk1\[3\]\.dly_binary\.signal_w\[3\]
*228 edgedetect\.dly_315ns_1\.genblk1\[3\]\.dly_binary\.signal_w\[4\]
*229 edgedetect\.dly_315ns_1\.genblk1\[3\]\.dly_binary\.signal_w\[5\]
*230 edgedetect\.dly_315ns_1\.genblk1\[3\]\.dly_binary\.signal_w\[6\]
*231 edgedetect\.dly_315ns_1\.genblk1\[3\]\.dly_binary\.signal_w\[7\]
*232 edgedetect\.dly_315ns_1\.genblk1\[3\]\.dly_binary\.signal_w\[8\]
*233 edgedetect\.dly_315ns_1\.genblk1\[4\]\.dly_binary\.bypass_in
*234 edgedetect\.dly_315ns_1\.genblk1\[4\]\.dly_binary\.out
*235 edgedetect\.dly_315ns_1\.genblk1\[4\]\.dly_binary\.signal_w\[0\]
*236 edgedetect\.dly_315ns_1\.genblk1\[4\]\.dly_binary\.signal_w\[10\]
*237 edgedetect\.dly_315ns_1\.genblk1\[4\]\.dly_binary\.signal_w\[11\]
*238 edgedetect\.dly_315ns_1\.genblk1\[4\]\.dly_binary\.signal_w\[12\]
*239 edgedetect\.dly_315ns_1\.genblk1\[4\]\.dly_binary\.signal_w\[13\]
*240 edgedetect\.dly_315ns_1\.genblk1\[4\]\.dly_binary\.signal_w\[14\]
*241 edgedetect\.dly_315ns_1\.genblk1\[4\]\.dly_binary\.signal_w\[15\]
*242 edgedetect\.dly_315ns_1\.genblk1\[4\]\.dly_binary\.signal_w\[16\]
*243 edgedetect\.dly_315ns_1\.genblk1\[4\]\.dly_binary\.signal_w\[1\]
*244 edgedetect\.dly_315ns_1\.genblk1\[4\]\.dly_binary\.signal_w\[2\]
*245 edgedetect\.dly_315ns_1\.genblk1\[4\]\.dly_binary\.signal_w\[3\]
*246 edgedetect\.dly_315ns_1\.genblk1\[4\]\.dly_binary\.signal_w\[4\]
*247 edgedetect\.dly_315ns_1\.genblk1\[4\]\.dly_binary\.signal_w\[5\]
*248 edgedetect\.dly_315ns_1\.genblk1\[4\]\.dly_binary\.signal_w\[6\]
*249 edgedetect\.dly_315ns_1\.genblk1\[4\]\.dly_binary\.signal_w\[7\]
*250 edgedetect\.dly_315ns_1\.genblk1\[4\]\.dly_binary\.signal_w\[8\]
*251 edgedetect\.dly_315ns_1\.genblk1\[4\]\.dly_binary\.signal_w\[9\]
*252 edgedetect\.dly_315ns_1\.genblk1\[5\]\.dly_binary\.bypass_in
*253 edgedetect\.dly_315ns_1\.genblk1\[5\]\.dly_binary\.out
*254 edgedetect\.dly_315ns_1\.genblk1\[5\]\.dly_binary\.signal_w\[0\]
*255 edgedetect\.dly_315ns_1\.genblk1\[5\]\.dly_binary\.signal_w\[10\]
*256 edgedetect\.dly_315ns_1\.genblk1\[5\]\.dly_binary\.signal_w\[11\]
*257 edgedetect\.dly_315ns_1\.genblk1\[5\]\.dly_binary\.signal_w\[12\]
*258 edgedetect\.dly_315ns_1\.genblk1\[5\]\.dly_binary\.signal_w\[13\]
*259 edgedetect\.dly_315ns_1\.genblk1\[5\]\.dly_binary\.signal_w\[14\]
*260 edgedetect\.dly_315ns_1\.genblk1\[5\]\.dly_binary\.signal_w\[15\]
*261 edgedetect\.dly_315ns_1\.genblk1\[5\]\.dly_binary\.signal_w\[16\]
*262 edgedetect\.dly_315ns_1\.genblk1\[5\]\.dly_binary\.signal_w\[17\]
*263 edgedetect\.dly_315ns_1\.genblk1\[5\]\.dly_binary\.signal_w\[18\]
*264 edgedetect\.dly_315ns_1\.genblk1\[5\]\.dly_binary\.signal_w\[19\]
*265 edgedetect\.dly_315ns_1\.genblk1\[5\]\.dly_binary\.signal_w\[1\]
*266 edgedetect\.dly_315ns_1\.genblk1\[5\]\.dly_binary\.signal_w\[20\]
*267 edgedetect\.dly_315ns_1\.genblk1\[5\]\.dly_binary\.signal_w\[21\]
*268 edgedetect\.dly_315ns_1\.genblk1\[5\]\.dly_binary\.signal_w\[22\]
*269 edgedetect\.dly_315ns_1\.genblk1\[5\]\.dly_binary\.signal_w\[23\]
*270 edgedetect\.dly_315ns_1\.genblk1\[5\]\.dly_binary\.signal_w\[24\]
*271 edgedetect\.dly_315ns_1\.genblk1\[5\]\.dly_binary\.signal_w\[25\]
*272 edgedetect\.dly_315ns_1\.genblk1\[5\]\.dly_binary\.signal_w\[26\]
*273 edgedetect\.dly_315ns_1\.genblk1\[5\]\.dly_binary\.signal_w\[27\]
*274 edgedetect\.dly_315ns_1\.genblk1\[5\]\.dly_binary\.signal_w\[28\]
*275 edgedetect\.dly_315ns_1\.genblk1\[5\]\.dly_binary\.signal_w\[29\]
*276 edgedetect\.dly_315ns_1\.genblk1\[5\]\.dly_binary\.signal_w\[2\]
*277 edgedetect\.dly_315ns_1\.genblk1\[5\]\.dly_binary\.signal_w\[30\]
*278 edgedetect\.dly_315ns_1\.genblk1\[5\]\.dly_binary\.signal_w\[31\]
*279 edgedetect\.dly_315ns_1\.genblk1\[5\]\.dly_binary\.signal_w\[32\]
*280 edgedetect\.dly_315ns_1\.genblk1\[5\]\.dly_binary\.signal_w\[3\]
*281 edgedetect\.dly_315ns_1\.genblk1\[5\]\.dly_binary\.signal_w\[4\]
*282 edgedetect\.dly_315ns_1\.genblk1\[5\]\.dly_binary\.signal_w\[5\]
*283 edgedetect\.dly_315ns_1\.genblk1\[5\]\.dly_binary\.signal_w\[6\]
*284 edgedetect\.dly_315ns_1\.genblk1\[5\]\.dly_binary\.signal_w\[7\]
*285 edgedetect\.dly_315ns_1\.genblk1\[5\]\.dly_binary\.signal_w\[8\]
*286 edgedetect\.dly_315ns_1\.genblk1\[5\]\.dly_binary\.signal_w\[9\]
*287 edgedetect\.ena_in
*288 edgedetect\.start_conv_edge_w
*289 nsample_n_1
*290 nsample_n_2
*291 nsample_n_3
*292 nsample_n_4
*293 nsample_p_1
*294 nsample_p_2
*295 nsample_p_3
*296 nsample_p_4
*297 sample_n_1
*298 sample_n_2
*299 sample_n_3
*300 sample_n_4
*301 sample_p_1
*302 sample_p_2
*303 sample_p_3
*304 sample_p_4
*305 ANTENNA_clkgen\.clkdig_inverter_A
*306 ANTENNA_clkgen\.delay_155ns_1\.enablebuffer_A
*307 ANTENNA_clkgen\.delay_155ns_1\.genblk1\[0\]\.control_invert_A
*308 ANTENNA_clkgen\.delay_155ns_1\.genblk1\[0\]\.dly_binary\.and_bypass_switch_A_N
*309 ANTENNA_clkgen\.delay_155ns_1\.genblk1\[0\]\.dly_binary\.out_mux_S
*310 ANTENNA_clkgen\.delay_155ns_1\.genblk1\[1\]\.control_invert_A
*311 ANTENNA_clkgen\.delay_155ns_1\.genblk1\[1\]\.dly_binary\.and_bypass_switch_A_N
*312 ANTENNA_clkgen\.delay_155ns_1\.genblk1\[1\]\.dly_binary\.out_mux_S
*313 ANTENNA_clkgen\.delay_155ns_1\.genblk1\[2\]\.control_invert_A
*314 ANTENNA_clkgen\.delay_155ns_1\.genblk1\[2\]\.dly_binary\.and_bypass_switch_A_N
*315 ANTENNA_clkgen\.delay_155ns_1\.genblk1\[2\]\.dly_binary\.out_mux_S
*316 ANTENNA_clkgen\.delay_155ns_1\.genblk1\[3\]\.control_invert_A
*317 ANTENNA_clkgen\.delay_155ns_1\.genblk1\[3\]\.dly_binary\.and_bypass_switch_A_N
*318 ANTENNA_clkgen\.delay_155ns_1\.genblk1\[3\]\.dly_binary\.and_bypass_switch_B
*319 ANTENNA_clkgen\.delay_155ns_1\.genblk1\[3\]\.dly_binary\.out_mux_A1
*320 ANTENNA_clkgen\.delay_155ns_1\.genblk1\[3\]\.dly_binary\.out_mux_S
*321 ANTENNA_clkgen\.delay_155ns_1\.genblk1\[4\]\.control_invert_A
*322 ANTENNA_clkgen\.delay_155ns_1\.genblk1\[4\]\.dly_binary\.and_bypass_switch_A_N
*323 ANTENNA_clkgen\.delay_155ns_1\.genblk1\[4\]\.dly_binary\.out_mux_A0
*324 ANTENNA_clkgen\.delay_155ns_1\.genblk1\[4\]\.dly_binary\.out_mux_S
*325 ANTENNA_clkgen\.delay_155ns_2\.enablebuffer_A
*326 ANTENNA_clkgen\.delay_155ns_2\.genblk1\[0\]\.control_invert_A
*327 ANTENNA_clkgen\.delay_155ns_2\.genblk1\[0\]\.dly_binary\.and_bypass_switch_A_N
*328 ANTENNA_clkgen\.delay_155ns_2\.genblk1\[0\]\.dly_binary\.and_bypass_switch_B
*329 ANTENNA_clkgen\.delay_155ns_2\.genblk1\[0\]\.dly_binary\.out_mux_A1
*330 ANTENNA_clkgen\.delay_155ns_2\.genblk1\[0\]\.dly_binary\.out_mux_S
*331 ANTENNA_clkgen\.delay_155ns_2\.genblk1\[1\]\.control_invert_A
*332 ANTENNA_clkgen\.delay_155ns_2\.genblk1\[1\]\.dly_binary\.and_bypass_switch_A_N
*333 ANTENNA_clkgen\.delay_155ns_2\.genblk1\[1\]\.dly_binary\.out_mux_S
*334 ANTENNA_clkgen\.delay_155ns_2\.genblk1\[2\]\.control_invert_A
*335 ANTENNA_clkgen\.delay_155ns_2\.genblk1\[3\]\.control_invert_A
*336 ANTENNA_clkgen\.delay_155ns_2\.genblk1\[4\]\.control_invert_A
*337 ANTENNA_clkgen\.delay_155ns_2\.genblk1\[4\]\.dly_binary\.out_mux_A0
*338 ANTENNA_clkgen\.delay_155ns_3\.enablebuffer_A
*339 ANTENNA_clkgen\.delay_155ns_3\.genblk1\[0\]\.bypass_enable_A
*340 ANTENNA_clkgen\.delay_155ns_3\.genblk1\[0\]\.control_invert_A
*341 ANTENNA_clkgen\.delay_155ns_3\.genblk1\[1\]\.bypass_enable_A
*342 ANTENNA_clkgen\.delay_155ns_3\.genblk1\[1\]\.control_invert_A
*343 ANTENNA_clkgen\.delay_155ns_3\.genblk1\[2\]\.bypass_enable_A
*344 ANTENNA_clkgen\.delay_155ns_3\.genblk1\[2\]\.control_invert_A
*345 ANTENNA_clkgen\.delay_155ns_3\.genblk1\[3\]\.bypass_enable_A
*346 ANTENNA_clkgen\.delay_155ns_3\.genblk1\[3\]\.control_invert_A
*347 ANTENNA_clkgen\.delay_155ns_3\.genblk1\[4\]\.bypass_enable_A
*348 ANTENNA_clkgen\.delay_155ns_3\.genblk1\[4\]\.control_invert_A
*349 ANTENNA_edgedetect\.dly_315ns_1\.enablebuffer_A
*350 ANTENNA_edgedetect\.dly_315ns_1\.genblk1\[0\]\.bypass_enable_A
*351 ANTENNA_edgedetect\.dly_315ns_1\.genblk1\[0\]\.control_invert_A
*352 ANTENNA_edgedetect\.dly_315ns_1\.genblk1\[0\]\.dly_binary\.and_bypass_switch_A_N
*353 ANTENNA_edgedetect\.dly_315ns_1\.genblk1\[0\]\.dly_binary\.out_mux_S
*354 ANTENNA_edgedetect\.dly_315ns_1\.genblk1\[1\]\.bypass_enable_A
*355 ANTENNA_edgedetect\.dly_315ns_1\.genblk1\[1\]\.control_invert_A
*356 ANTENNA_edgedetect\.dly_315ns_1\.genblk1\[1\]\.dly_binary\.and_bypass_switch_A_N
*357 ANTENNA_edgedetect\.dly_315ns_1\.genblk1\[1\]\.dly_binary\.out_mux_S
*358 ANTENNA_edgedetect\.dly_315ns_1\.genblk1\[2\]\.bypass_enable_A
*359 ANTENNA_edgedetect\.dly_315ns_1\.genblk1\[2\]\.control_invert_A
*360 ANTENNA_edgedetect\.dly_315ns_1\.genblk1\[2\]\.dly_binary\.and_bypass_switch_A_N
*361 ANTENNA_edgedetect\.dly_315ns_1\.genblk1\[2\]\.dly_binary\.out_mux_S
*362 ANTENNA_edgedetect\.dly_315ns_1\.genblk1\[3\]\.bypass_enable_A
*363 ANTENNA_edgedetect\.dly_315ns_1\.genblk1\[3\]\.control_invert_A
*364 ANTENNA_edgedetect\.dly_315ns_1\.genblk1\[3\]\.dly_binary\.and_bypass_switch_A_N
*365 ANTENNA_edgedetect\.dly_315ns_1\.genblk1\[3\]\.dly_binary\.out_mux_S
*366 ANTENNA_edgedetect\.dly_315ns_1\.genblk1\[4\]\.bypass_enable_A
*367 ANTENNA_edgedetect\.dly_315ns_1\.genblk1\[4\]\.control_invert_A
*368 ANTENNA_edgedetect\.dly_315ns_1\.genblk1\[4\]\.dly_binary\.and_bypass_switch_A_N
*369 ANTENNA_edgedetect\.dly_315ns_1\.genblk1\[4\]\.dly_binary\.out_mux_S
*370 ANTENNA_edgedetect\.dly_315ns_1\.genblk1\[5\]\.bypass_enable_A
*371 ANTENNA_edgedetect\.dly_315ns_1\.genblk1\[5\]\.control_invert_A
*372 ANTENNA_edgedetect\.dly_315ns_1\.genblk1\[5\]\.dly_binary\.and_bypass_switch_A_N
*373 ANTENNA_edgedetect\.dly_315ns_1\.genblk1\[5\]\.dly_binary\.out_mux_A0
*374 ANTENNA_edgedetect\.dly_315ns_1\.genblk1\[5\]\.dly_binary\.out_mux_S
*375 ANTENNA_inbuf_1_A
*376 ANTENNA_inbuf_2_A
*377 ANTENNA_inbuf_3_A
*378 ANTENNA_outbuf_1_A
*379 ANTENNA_sampledly01_A
*380 ANTENNA_sampledly02_A
*381 ANTENNA_sampledly03_A
*382 ANTENNA_sampledly04_A
*383 FILLER_0_122
*384 FILLER_0_125
*385 FILLER_0_15
*386 FILLER_0_153
*387 FILLER_0_156
*388 FILLER_0_183
*389 FILLER_0_187
*390 FILLER_0_214
*391 FILLER_0_218
*392 FILLER_0_223
*393 FILLER_0_227
*394 FILLER_0_238
*395 FILLER_0_245
*396 FILLER_0_249
*397 FILLER_0_261
*398 FILLER_0_275
*399 FILLER_0_280
*400 FILLER_0_29
*401 FILLER_0_292
*402 FILLER_0_3
*403 FILLER_0_306
*404 FILLER_0_311
*405 FILLER_0_315
*406 FILLER_0_32
*407 FILLER_0_321
*408 FILLER_0_333
*409 FILLER_0_342
*410 FILLER_0_60
*411 FILLER_0_63
*412 FILLER_0_91
*413 FILLER_0_94
*414 FILLER_10_121
*415 FILLER_10_127
*416 FILLER_10_153
*417 FILLER_10_156
*418 FILLER_10_16
*419 FILLER_10_164
*420 FILLER_10_174
*421 FILLER_10_203
*422 FILLER_10_212
*423 FILLER_10_216
*424 FILLER_10_218
*425 FILLER_10_245
*426 FILLER_10_251
*427 FILLER_10_277
*428 FILLER_10_280
*429 FILLER_10_284
*430 FILLER_10_29
*431 FILLER_10_290
*432 FILLER_10_296
*433 FILLER_10_3
*434 FILLER_10_32
*435 FILLER_10_322
*436 FILLER_10_328
*437 FILLER_10_340
*438 FILLER_10_342
*439 FILLER_10_41
*440 FILLER_10_70
*441 FILLER_10_87
*442 FILLER_10_9
*443 FILLER_10_94
*444 FILLER_11_122
*445 FILLER_11_125
*446 FILLER_11_154
*447 FILLER_11_158
*448 FILLER_11_184
*449 FILLER_11_187
*450 FILLER_11_218
*451 FILLER_11_227
*452 FILLER_11_236
*453 FILLER_11_243
*454 FILLER_11_247
*455 FILLER_11_249
*456 FILLER_11_276
*457 FILLER_11_282
*458 FILLER_11_288
*459 FILLER_11_294
*460 FILLER_11_3
*461 FILLER_11_300
*462 FILLER_11_306
*463 FILLER_11_31
*464 FILLER_11_311
*465 FILLER_11_315
*466 FILLER_11_321
*467 FILLER_11_327
*468 FILLER_11_333
*469 FILLER_11_339
*470 FILLER_11_343
*471 FILLER_11_60
*472 FILLER_11_63
*473 FILLER_11_90
*474 FILLER_11_96
*475 FILLER_12_124
*476 FILLER_12_153
*477 FILLER_12_156
*478 FILLER_12_16
*479 FILLER_12_163
*480 FILLER_12_172
*481 FILLER_12_181
*482 FILLER_12_189
*483 FILLER_12_215
*484 FILLER_12_218
*485 FILLER_12_246
*486 FILLER_12_253
*487 FILLER_12_260
*488 FILLER_12_267
*489 FILLER_12_274
*490 FILLER_12_278
*491 FILLER_12_280
*492 FILLER_12_284
*493 FILLER_12_29
*494 FILLER_12_290
*495 FILLER_12_296
*496 FILLER_12_3
*497 FILLER_12_302
*498 FILLER_12_308
*499 FILLER_12_314
*500 FILLER_12_32
*501 FILLER_12_320
*502 FILLER_12_326
*503 FILLER_12_332
*504 FILLER_12_338
*505 FILLER_12_342
*506 FILLER_12_59
*507 FILLER_12_65
*508 FILLER_12_9
*509 FILLER_12_91
*510 FILLER_12_94
*511 FILLER_12_98
*512 FILLER_13_122
*513 FILLER_13_125
*514 FILLER_13_133
*515 FILLER_13_142
*516 FILLER_13_171
*517 FILLER_13_180
*518 FILLER_13_187
*519 FILLER_13_214
*520 FILLER_13_243
*521 FILLER_13_247
*522 FILLER_13_249
*523 FILLER_13_276
*524 FILLER_13_282
*525 FILLER_13_288
*526 FILLER_13_294
*527 FILLER_13_3
*528 FILLER_13_300
*529 FILLER_13_306
*530 FILLER_13_31
*531 FILLER_13_311
*532 FILLER_13_338
*533 FILLER_13_60
*534 FILLER_13_63
*535 FILLER_13_67
*536 FILLER_13_93
*537 FILLER_14_124
*538 FILLER_14_153
*539 FILLER_14_156
*540 FILLER_14_16
*541 FILLER_14_164
*542 FILLER_14_193
*543 FILLER_14_202
*544 FILLER_14_211
*545 FILLER_14_218
*546 FILLER_14_245
*547 FILLER_14_274
*548 FILLER_14_278
*549 FILLER_14_280
*550 FILLER_14_284
*551 FILLER_14_29
*552 FILLER_14_3
*553 FILLER_14_310
*554 FILLER_14_32
*555 FILLER_14_339
*556 FILLER_14_342
*557 FILLER_14_42
*558 FILLER_14_55
*559 FILLER_14_84
*560 FILLER_14_91
*561 FILLER_14_94
*562 FILLER_14_98
*563 FILLER_15_122
*564 FILLER_15_125
*565 FILLER_15_137
*566 FILLER_15_147
*567 FILLER_15_180
*568 FILLER_15_187
*569 FILLER_15_214
*570 FILLER_15_220
*571 FILLER_15_246
*572 FILLER_15_249
*573 FILLER_15_276
*574 FILLER_15_3
*575 FILLER_15_305
*576 FILLER_15_309
*577 FILLER_15_31
*578 FILLER_15_311
*579 FILLER_15_338
*580 FILLER_15_60
*581 FILLER_15_63
*582 FILLER_15_67
*583 FILLER_15_93
*584 FILLER_16_124
*585 FILLER_16_153
*586 FILLER_16_156
*587 FILLER_16_16
*588 FILLER_16_164
*589 FILLER_16_173
*590 FILLER_16_180
*591 FILLER_16_209
*592 FILLER_16_215
*593 FILLER_16_218
*594 FILLER_16_245
*595 FILLER_16_274
*596 FILLER_16_278
*597 FILLER_16_280
*598 FILLER_16_29
*599 FILLER_16_3
*600 FILLER_16_307
*601 FILLER_16_32
*602 FILLER_16_336
*603 FILLER_16_340
*604 FILLER_16_342
*605 FILLER_16_36
*606 FILLER_16_62
*607 FILLER_16_91
*608 FILLER_16_94
*609 FILLER_16_98
*610 FILLER_17_114
*611 FILLER_17_121
*612 FILLER_17_125
*613 FILLER_17_129
*614 FILLER_17_155
*615 FILLER_17_184
*616 FILLER_17_187
*617 FILLER_17_192
*618 FILLER_17_196
*619 FILLER_17_222
*620 FILLER_17_231
*621 FILLER_17_235
*622 FILLER_17_246
*623 FILLER_17_249
*624 FILLER_17_253
*625 FILLER_17_279
*626 FILLER_17_288
*627 FILLER_17_295
*628 FILLER_17_3
*629 FILLER_17_30
*630 FILLER_17_302
*631 FILLER_17_308
*632 FILLER_17_311
*633 FILLER_17_342
*634 FILLER_17_59
*635 FILLER_17_63
*636 FILLER_17_71
*637 FILLER_17_85
*638 FILLER_18_124
*639 FILLER_18_15
*640 FILLER_18_153
*641 FILLER_18_156
*642 FILLER_18_164
*643 FILLER_18_173
*644 FILLER_18_179
*645 FILLER_18_208
*646 FILLER_18_215
*647 FILLER_18_218
*648 FILLER_18_245
*649 FILLER_18_274
*650 FILLER_18_278
*651 FILLER_18_280
*652 FILLER_18_29
*653 FILLER_18_292
*654 FILLER_18_3
*655 FILLER_18_300
*656 FILLER_18_307
*657 FILLER_18_313
*658 FILLER_18_319
*659 FILLER_18_32
*660 FILLER_18_325
*661 FILLER_18_331
*662 FILLER_18_337
*663 FILLER_18_342
*664 FILLER_18_36
*665 FILLER_18_62
*666 FILLER_18_91
*667 FILLER_18_94
*668 FILLER_18_98
*669 FILLER_19_122
*670 FILLER_19_125
*671 FILLER_19_15
*672 FILLER_19_153
*673 FILLER_19_156
*674 FILLER_19_184
*675 FILLER_19_187
*676 FILLER_19_215
*677 FILLER_19_218
*678 FILLER_19_246
*679 FILLER_19_249
*680 FILLER_19_276
*681 FILLER_19_280
*682 FILLER_19_29
*683 FILLER_19_292
*684 FILLER_19_3
*685 FILLER_19_306
*686 FILLER_19_311
*687 FILLER_19_315
*688 FILLER_19_32
*689 FILLER_19_321
*690 FILLER_19_327
*691 FILLER_19_333
*692 FILLER_19_339
*693 FILLER_19_342
*694 FILLER_19_60
*695 FILLER_19_63
*696 FILLER_19_91
*697 FILLER_19_94
*698 FILLER_1_122
*699 FILLER_1_125
*700 FILLER_1_129
*701 FILLER_1_155
*702 FILLER_1_184
*703 FILLER_1_187
*704 FILLER_1_214
*705 FILLER_1_223
*706 FILLER_1_230
*707 FILLER_1_237
*708 FILLER_1_244
*709 FILLER_1_249
*710 FILLER_1_254
*711 FILLER_1_261
*712 FILLER_1_267
*713 FILLER_1_273
*714 FILLER_1_279
*715 FILLER_1_285
*716 FILLER_1_291
*717 FILLER_1_297
*718 FILLER_1_3
*719 FILLER_1_303
*720 FILLER_1_309
*721 FILLER_1_31
*722 FILLER_1_311
*723 FILLER_1_315
*724 FILLER_1_327
*725 FILLER_1_339
*726 FILLER_1_343
*727 FILLER_1_60
*728 FILLER_1_63
*729 FILLER_1_67
*730 FILLER_1_93
*731 FILLER_2_124
*732 FILLER_2_153
*733 FILLER_2_156
*734 FILLER_2_16
*735 FILLER_2_164
*736 FILLER_2_195
*737 FILLER_2_205
*738 FILLER_2_214
*739 FILLER_2_218
*740 FILLER_2_225
*741 FILLER_2_234
*742 FILLER_2_240
*743 FILLER_2_266
*744 FILLER_2_272
*745 FILLER_2_278
*746 FILLER_2_280
*747 FILLER_2_284
*748 FILLER_2_29
*749 FILLER_2_290
*750 FILLER_2_296
*751 FILLER_2_3
*752 FILLER_2_302
*753 FILLER_2_308
*754 FILLER_2_314
*755 FILLER_2_32
*756 FILLER_2_320
*757 FILLER_2_332
*758 FILLER_2_340
*759 FILLER_2_342
*760 FILLER_2_36
*761 FILLER_2_62
*762 FILLER_2_9
*763 FILLER_2_91
*764 FILLER_2_94
*765 FILLER_2_98
*766 FILLER_3_116
*767 FILLER_3_122
*768 FILLER_3_125
*769 FILLER_3_137
*770 FILLER_3_147
*771 FILLER_3_15
*772 FILLER_3_178
*773 FILLER_3_184
*774 FILLER_3_187
*775 FILLER_3_218
*776 FILLER_3_227
*777 FILLER_3_236
*778 FILLER_3_243
*779 FILLER_3_247