* NGSPICE file created from adc_clkgen_with_edgedetect_native.ext - technology: sky130A

* Black-box entry subcircuit for sky130_fd_sc_hd__fill_1 abstract view
.subckt sky130_fd_sc_hd__fill_1 VGND VNB VPB VPWR
.ends

* Black-box entry subcircuit for sky130_fd_sc_hd__tapvpwrvgnd_1 abstract view
.subckt sky130_fd_sc_hd__tapvpwrvgnd_1 VGND VPWR
.ends

* Black-box entry subcircuit for sky130_fd_sc_hd__clkdlybuf4s50_2 abstract view
.subckt sky130_fd_sc_hd__clkdlybuf4s50_2 A VGND VNB VPB VPWR X
.ends

* Black-box entry subcircuit for sky130_fd_sc_hd__fill_2 abstract view
.subckt sky130_fd_sc_hd__fill_2 VGND VNB VPB VPWR
.ends

* Black-box entry subcircuit for sky130_fd_sc_hd__decap_6 abstract view
.subckt sky130_fd_sc_hd__decap_6 VGND VNB VPB VPWR
.ends

* Black-box entry subcircuit for sky130_fd_sc_hd__decap_4 abstract view
.subckt sky130_fd_sc_hd__decap_4 VGND VNB VPB VPWR
.ends

* Black-box entry subcircuit for sky130_fd_sc_hd__decap_8 abstract view
.subckt sky130_fd_sc_hd__decap_8 VGND VNB VPB VPWR
.ends

* Black-box entry subcircuit for sky130_fd_sc_hd__decap_3 abstract view
.subckt sky130_fd_sc_hd__decap_3 VGND VNB VPB VPWR
.ends

* Black-box entry subcircuit for sky130_ef_sc_hd__decap_12 abstract view
.subckt sky130_ef_sc_hd__decap_12 VGND VPWR VPB VNB
.ends

* Black-box entry subcircuit for sky130_fd_sc_hd__o21ba_2 abstract view
.subckt sky130_fd_sc_hd__o21ba_2 A1 A2 B1_N VGND VNB VPB VPWR X
.ends

* Black-box entry subcircuit for sky130_fd_sc_hd__and2b_2 abstract view
.subckt sky130_fd_sc_hd__and2b_2 A_N B VGND VNB VPB VPWR X
.ends

* Black-box entry subcircuit for sky130_fd_sc_hd__inv_2 abstract view
.subckt sky130_fd_sc_hd__inv_2 A VGND VNB VPB VPWR Y
.ends

.subckt adc_clkgen_with_edgedetect_native VGND VPWR clk_comp clk_dig comp_trig ena_in
+ start_conv
XFILLER_79_391 VGND VGND VPWR VPWR sky130_fd_sc_hd__fill_1
XTAP_188 VGND VPWR sky130_fd_sc_hd__tapvpwrvgnd_1
Xclkgen.delay_200ns_2.genblk1\[189\].delay_unit clkgen.delay_200ns_2.genblk1\[189\].delay_unit/A
+ VGND VGND VPWR VPWR clkgen.delay_200ns_2.genblk1\[190\].delay_unit/A sky130_fd_sc_hd__clkdlybuf4s50_2
XTAP_199 VGND VPWR sky130_fd_sc_hd__tapvpwrvgnd_1
XFILLER_39_233 VGND VGND VPWR VPWR sky130_fd_sc_hd__fill_2
XFILLER_39_244 VGND VGND VPWR VPWR sky130_fd_sc_hd__decap_6
XFILLER_82_512 VGND VGND VPWR VPWR sky130_fd_sc_hd__decap_6
Xclkgen.delay_200ns_2.genblk1\[488\].delay_unit clkgen.delay_200ns_2.genblk1\[488\].delay_unit/A
+ VGND VGND VPWR VPWR clkgen.delay_200ns_2.genblk1\[489\].delay_unit/A sky130_fd_sc_hd__clkdlybuf4s50_2
XFILLER_27_428 VGND VGND VPWR VPWR sky130_fd_sc_hd__decap_4
XFILLER_54_247 VGND VGND VPWR VPWR sky130_fd_sc_hd__decap_4
XFILLER_52_29 VGND VGND VPWR VPWR sky130_fd_sc_hd__decap_8
XFILLER_22_166 VGND VGND VPWR VPWR sky130_fd_sc_hd__decap_4
XFILLER_50_475 VGND VGND VPWR VPWR sky130_fd_sc_hd__fill_1
Xclkgen.delay_200ns_2.genblk1\[302\].delay_unit clkgen.delay_200ns_2.genblk1\[302\].delay_unit/A
+ VGND VGND VPWR VPWR clkgen.delay_200ns_2.genblk1\[303\].delay_unit/A sky130_fd_sc_hd__clkdlybuf4s50_2
Xedgedetect.delay_400ns.genblk1\[126\].delay_unit edgedetect.delay_400ns.genblk1\[126\].delay_unit/A
+ VGND VGND VPWR VPWR edgedetect.delay_400ns.genblk1\[127\].delay_unit/A sky130_fd_sc_hd__clkdlybuf4s50_2
Xedgedetect.delay_400ns.genblk1\[425\].delay_unit edgedetect.delay_400ns.genblk1\[425\].delay_unit/A
+ VGND VGND VPWR VPWR edgedetect.delay_400ns.genblk1\[426\].delay_unit/A sky130_fd_sc_hd__clkdlybuf4s50_2
Xclkgen.delay_200ns_1.genblk1\[336\].delay_unit clkgen.delay_200ns_1.genblk1\[336\].delay_unit/A
+ VGND VGND VPWR VPWR clkgen.delay_200ns_1.genblk1\[337\].delay_unit/A sky130_fd_sc_hd__clkdlybuf4s50_2
Xedgedetect.delay_400ns.genblk1\[724\].delay_unit edgedetect.delay_400ns.genblk1\[724\].delay_unit/A
+ VGND VGND VPWR VPWR edgedetect.delay_400ns.genblk1\[725\].delay_unit/A sky130_fd_sc_hd__clkdlybuf4s50_2
XFILLER_58_531 VGND VGND VPWR VPWR sky130_fd_sc_hd__fill_1
XFILLER_85_372 VGND VGND VPWR VPWR sky130_fd_sc_hd__decap_4
XFILLER_45_225 VGND VGND VPWR VPWR sky130_fd_sc_hd__decap_3
XFILLER_26_41 VGND VGND VPWR VPWR sky130_fd_sc_hd__decap_4
XFILLER_60_206 VGND VGND VPWR VPWR sky130_fd_sc_hd__decap_8
XFILLER_13_122 VGND VGND VPWR VPWR sky130_fd_sc_hd__decap_4
XFILLER_26_85 VGND VGND VPWR VPWR sky130_fd_sc_hd__decap_3
Xclkgen.delay_200ns_2.genblk1\[191\].delay_unit clkgen.delay_200ns_2.genblk1\[191\].delay_unit/A
+ VGND VGND VPWR VPWR clkgen.delay_200ns_2.genblk1\[192\].delay_unit/A sky130_fd_sc_hd__clkdlybuf4s50_2
XFILLER_41_497 VGND VGND VPWR VPWR sky130_fd_sc_hd__decap_6
Xclkgen.delay_200ns_2.genblk1\[490\].delay_unit clkgen.delay_200ns_2.genblk1\[490\].delay_unit/A
+ VGND VGND VPWR VPWR clkgen.delay_200ns_2.genblk1\[491\].delay_unit/A sky130_fd_sc_hd__clkdlybuf4s50_2
Xedgedetect.delay_400ns.genblk1\[44\].delay_unit edgedetect.delay_400ns.genblk1\[44\].delay_unit/A
+ VGND VGND VPWR VPWR edgedetect.delay_400ns.genblk1\[45\].delay_unit/A sky130_fd_sc_hd__clkdlybuf4s50_2
XFILLER_68_306 VGND VGND VPWR VPWR sky130_fd_sc_hd__fill_2
XFILLER_64_512 VGND VGND VPWR VPWR sky130_fd_sc_hd__decap_4
XFILLER_83_91 VGND VPWR VPWR VGND sky130_ef_sc_hd__decap_12
Xedgedetect.delay_400ns.genblk1\[1009\].delay_unit edgedetect.delay_400ns.genblk1\[1009\].delay_unit/A
+ VGND VGND VPWR VPWR edgedetect.delay_400ns.genblk1\[1010\].delay_unit/A sky130_fd_sc_hd__clkdlybuf4s50_2
Xclkgen.delay_200ns_3.genblk1\[334\].delay_unit clkgen.delay_200ns_3.genblk1\[334\].delay_unit/A
+ VGND VGND VPWR VPWR clkgen.delay_200ns_3.genblk1\[335\].delay_unit/A sky130_fd_sc_hd__clkdlybuf4s50_2
XFILLER_32_475 VGND VGND VPWR VPWR sky130_fd_sc_hd__fill_1
XFILLER_32_486 VGND VGND VPWR VPWR sky130_fd_sc_hd__decap_4
Xclkgen.delay_200ns_2.genblk1\[6\].delay_unit clkgen.delay_200ns_2.genblk1\[6\].delay_unit/A
+ VGND VGND VPWR VPWR clkgen.delay_200ns_2.genblk1\[7\].delay_unit/A sky130_fd_sc_hd__clkdlybuf4s50_2
XFILLER_8_192 VGND VGND VPWR VPWR sky130_fd_sc_hd__decap_4
Xclkgen.delay_200ns_2.genblk1\[368\].delay_unit clkgen.delay_200ns_2.genblk1\[368\].delay_unit/A
+ VGND VGND VPWR VPWR clkgen.delay_200ns_2.genblk1\[369\].delay_unit/A sky130_fd_sc_hd__clkdlybuf4s50_2
XFILLER_67_372 VGND VGND VPWR VPWR sky130_fd_sc_hd__decap_4
XFILLER_27_225 VGND VGND VPWR VPWR sky130_fd_sc_hd__decap_3
XFILLER_82_331 VGND VPWR VPWR VGND sky130_ef_sc_hd__decap_12
XFILLER_63_39 VGND VPWR VPWR VGND sky130_ef_sc_hd__decap_12
Xedgedetect.delay_400ns.genblk1\[305\].delay_unit edgedetect.delay_400ns.genblk1\[305\].delay_unit/A
+ VGND VGND VPWR VPWR edgedetect.delay_400ns.genblk1\[306\].delay_unit/A sky130_fd_sc_hd__clkdlybuf4s50_2
Xclkgen.delay_200ns_1.genblk1\[216\].delay_unit clkgen.delay_200ns_1.genblk1\[216\].delay_unit/A
+ VGND VGND VPWR VPWR clkgen.delay_200ns_1.genblk1\[217\].delay_unit/A sky130_fd_sc_hd__clkdlybuf4s50_2
XFILLER_23_497 VGND VGND VPWR VPWR sky130_fd_sc_hd__decap_6
Xedgedetect.delay_400ns.genblk1\[604\].delay_unit edgedetect.delay_400ns.genblk1\[604\].delay_unit/A
+ VGND VGND VPWR VPWR edgedetect.delay_400ns.genblk1\[605\].delay_unit/A sky130_fd_sc_hd__clkdlybuf4s50_2
Xclkgen.delay_200ns_1.genblk1\[515\].delay_unit clkgen.delay_200ns_1.genblk1\[515\].delay_unit/A
+ VGND VGND VPWR VPWR clkgen.delay_200ns_1.genblk1\[516\].delay_unit/A sky130_fd_sc_hd__clkdlybuf4s50_2
XFILLER_10_136 VGND VGND VPWR VPWR sky130_fd_sc_hd__decap_4
XFILLER_6_107 VGND VPWR VPWR VGND sky130_ef_sc_hd__decap_12
XFILLER_12_54 VGND VGND VPWR VPWR sky130_fd_sc_hd__decap_4
XFILLER_10_169 VGND VGND VPWR VPWR sky130_fd_sc_hd__fill_1
Xedgedetect.delay_400ns.genblk1\[903\].delay_unit edgedetect.delay_400ns.genblk1\[903\].delay_unit/A
+ VGND VGND VPWR VPWR edgedetect.delay_400ns.genblk1\[904\].delay_unit/A sky130_fd_sc_hd__clkdlybuf4s50_2
Xedgedetect.delay_400ns.genblk1\[1011\].delay_unit edgedetect.delay_400ns.genblk1\[1011\].delay_unit/A
+ VGND VGND VPWR VPWR edgedetect.delay_400ns.genblk1\[1012\].delay_unit/A sky130_fd_sc_hd__clkdlybuf4s50_2
XFILLER_77_125 VGND VGND VPWR VPWR sky130_fd_sc_hd__decap_4
XFILLER_77_169 VGND VGND VPWR VPWR sky130_fd_sc_hd__decap_3
XFILLER_46_501 VGND VPWR VPWR VGND sky130_ef_sc_hd__decap_12
XFILLER_58_361 VGND VGND VPWR VPWR sky130_fd_sc_hd__decap_3
Xclkgen.delay_200ns_2.genblk1\[370\].delay_unit clkgen.delay_200ns_2.genblk1\[370\].delay_unit/A
+ VGND VGND VPWR VPWR clkgen.delay_200ns_2.genblk1\[371\].delay_unit/A sky130_fd_sc_hd__clkdlybuf4s50_2
XFILLER_37_95 VGND VGND VPWR VPWR sky130_fd_sc_hd__decap_4
Xedgedetect.delay_400ns.genblk1\[194\].delay_unit edgedetect.delay_400ns.genblk1\[194\].delay_unit/A
+ VGND VGND VPWR VPWR edgedetect.delay_400ns.genblk1\[195\].delay_unit/A sky130_fd_sc_hd__clkdlybuf4s50_2
Xedgedetect.delay_400ns.genblk1\[493\].delay_unit edgedetect.delay_400ns.genblk1\[493\].delay_unit/A
+ VGND VGND VPWR VPWR edgedetect.delay_400ns.genblk1\[494\].delay_unit/A sky130_fd_sc_hd__clkdlybuf4s50_2
XFILLER_14_486 VGND VGND VPWR VPWR sky130_fd_sc_hd__decap_4
XFILLER_14_475 VGND VGND VPWR VPWR sky130_fd_sc_hd__fill_1
Xclkgen.delay_200ns_3.genblk1\[13\].delay_unit clkgen.delay_200ns_3.genblk1\[13\].delay_unit/A
+ VGND VGND VPWR VPWR clkgen.delay_200ns_3.genblk1\[14\].delay_unit/A sky130_fd_sc_hd__clkdlybuf4s50_2
Xedgedetect.delay_400ns.genblk1\[792\].delay_unit edgedetect.delay_400ns.genblk1\[792\].delay_unit/A
+ VGND VGND VPWR VPWR edgedetect.delay_400ns.genblk1\[793\].delay_unit/A sky130_fd_sc_hd__clkdlybuf4s50_2
XFILLER_78_80 VGND VGND VPWR VPWR sky130_fd_sc_hd__decap_4
XFILLER_68_136 VGND VGND VPWR VPWR sky130_fd_sc_hd__decap_4
Xclkgen.delay_200ns_3.genblk1\[214\].delay_unit clkgen.delay_200ns_3.genblk1\[214\].delay_unit/A
+ VGND VGND VPWR VPWR clkgen.delay_200ns_3.genblk1\[215\].delay_unit/A sky130_fd_sc_hd__clkdlybuf4s50_2
Xclkgen.delay_200ns_1.genblk1\[15\].delay_unit clkgen.delay_200ns_1.genblk1\[15\].delay_unit/A
+ VGND VGND VPWR VPWR clkgen.delay_200ns_1.genblk1\[16\].delay_unit/A sky130_fd_sc_hd__clkdlybuf4s50_2
Xclkgen.delay_200ns_3.genblk1\[513\].delay_unit clkgen.delay_200ns_3.genblk1\[513\].delay_unit/A
+ VGND VGND VPWR VPWR clkgen.delay_200ns_3.genblk1\[514\].delay_unit/A sky130_fd_sc_hd__clkdlybuf4s50_2
XFILLER_49_361 VGND VPWR VPWR VGND sky130_ef_sc_hd__decap_12
XFILLER_64_331 VGND VGND VPWR VPWR sky130_fd_sc_hd__decap_4
Xclkgen.delay_200ns_2.genblk1\[248\].delay_unit clkgen.delay_200ns_2.genblk1\[248\].delay_unit/A
+ VGND VGND VPWR VPWR clkgen.delay_200ns_2.genblk1\[249\].delay_unit/A sky130_fd_sc_hd__clkdlybuf4s50_2
XFILLER_20_456 VGND VGND VPWR VPWR sky130_fd_sc_hd__decap_4
Xclkgen.delay_200ns_2.genblk1\[47\].delay_unit clkgen.delay_200ns_2.genblk1\[47\].delay_unit/A
+ VGND VGND VPWR VPWR clkgen.delay_200ns_2.genblk1\[48\].delay_unit/A sky130_fd_sc_hd__clkdlybuf4s50_2
Xedgedetect.delay_400ns.genblk1\[969\].delay_unit edgedetect.delay_400ns.genblk1\[969\].delay_unit/A
+ VGND VGND VPWR VPWR edgedetect.delay_400ns.genblk1\[970\].delay_unit/A sky130_fd_sc_hd__clkdlybuf4s50_2
XFILLER_59_125 VGND VGND VPWR VPWR sky130_fd_sc_hd__decap_4
Xedgedetect.delay_400ns.genblk1\[1077\].delay_unit edgedetect.delay_400ns.genblk1\[1077\].delay_unit/A
+ VGND VGND VPWR VPWR edgedetect.delay_400ns.genblk1\[1078\].delay_unit/A sky130_fd_sc_hd__clkdlybuf4s50_2
XFILLER_59_169 VGND VGND VPWR VPWR sky130_fd_sc_hd__decap_3
XFILLER_28_512 VGND VGND VPWR VPWR sky130_fd_sc_hd__decap_4
XFILLER_74_27 VGND VGND VPWR VPWR sky130_fd_sc_hd__fill_1
XFILLER_30_209 VGND VGND VPWR VPWR sky130_fd_sc_hd__decap_4
XFILLER_7_449 VGND VGND VPWR VPWR sky130_fd_sc_hd__fill_1
Xclkgen.delay_200ns_2.genblk1\[250\].delay_unit clkgen.delay_200ns_2.genblk1\[250\].delay_unit/A
+ VGND VGND VPWR VPWR clkgen.delay_200ns_2.genblk1\[251\].delay_unit/A sky130_fd_sc_hd__clkdlybuf4s50_2
Xclkgen.delay_200ns_3.genblk1\[79\].delay_unit clkgen.delay_200ns_3.genblk1\[79\].delay_unit/A
+ VGND VGND VPWR VPWR clkgen.delay_200ns_3.genblk1\[80\].delay_unit/A sky130_fd_sc_hd__clkdlybuf4s50_2
XFILLER_2_121 VGND VPWR VPWR VGND sky130_ef_sc_hd__decap_12
XFILLER_78_456 VGND VGND VPWR VPWR sky130_fd_sc_hd__decap_4
Xedgedetect.delay_400ns.genblk1\[373\].delay_unit edgedetect.delay_400ns.genblk1\[373\].delay_unit/A
+ VGND VGND VPWR VPWR edgedetect.delay_400ns.genblk1\[374\].delay_unit/A sky130_fd_sc_hd__clkdlybuf4s50_2
Xclkgen.delay_200ns_1.genblk1\[284\].delay_unit clkgen.delay_200ns_1.genblk1\[284\].delay_unit/A
+ VGND VGND VPWR VPWR clkgen.delay_200ns_1.genblk1\[285\].delay_unit/A sky130_fd_sc_hd__clkdlybuf4s50_2
Xedgedetect.delay_400ns.genblk1\[672\].delay_unit edgedetect.delay_400ns.genblk1\[672\].delay_unit/A
+ VGND VGND VPWR VPWR edgedetect.delay_400ns.genblk1\[673\].delay_unit/A sky130_fd_sc_hd__clkdlybuf4s50_2
XFILLER_46_331 VGND VGND VPWR VPWR sky130_fd_sc_hd__decap_4
XFILLER_80_109 VGND VPWR VPWR VGND sky130_ef_sc_hd__decap_12
XFILLER_0_57 VGND VPWR VPWR VGND sky130_ef_sc_hd__decap_12
XFILLER_73_194 VGND VGND VPWR VPWR sky130_fd_sc_hd__decap_4
Xedgedetect.delay_400ns.genblk1\[971\].delay_unit edgedetect.delay_400ns.genblk1\[971\].delay_unit/A
+ VGND VGND VPWR VPWR edgedetect.delay_400ns.genblk1\[972\].delay_unit/A sky130_fd_sc_hd__clkdlybuf4s50_2
XFILLER_46_386 VGND VPWR VPWR VGND sky130_ef_sc_hd__decap_12
XFILLER_61_334 VGND VGND VPWR VPWR sky130_fd_sc_hd__fill_2
XFILLER_9_55 VGND VGND VPWR VPWR sky130_fd_sc_hd__fill_1
XFILLER_50_3 VGND VPWR VPWR VGND sky130_ef_sc_hd__decap_12
XFILLER_88_209 VGND VPWR VPWR VGND sky130_ef_sc_hd__decap_12
Xclkgen.delay_200ns_2.genblk1\[128\].delay_unit clkgen.delay_200ns_2.genblk1\[128\].delay_unit/A
+ VGND VGND VPWR VPWR clkgen.delay_200ns_2.genblk1\[129\].delay_unit/A sky130_fd_sc_hd__clkdlybuf4s50_2
Xclkgen.delay_200ns_2.genblk1\[427\].delay_unit clkgen.delay_200ns_2.genblk1\[427\].delay_unit/A
+ VGND VGND VPWR VPWR clkgen.delay_200ns_2.genblk1\[428\].delay_unit/A sky130_fd_sc_hd__clkdlybuf4s50_2
Xclkgen.delay_200ns_3.genblk1\[81\].delay_unit clkgen.delay_200ns_3.genblk1\[81\].delay_unit/A
+ VGND VGND VPWR VPWR clkgen.delay_200ns_3.genblk1\[82\].delay_unit/A sky130_fd_sc_hd__clkdlybuf4s50_2
XFILLER_56_139 VGND VGND VPWR VPWR sky130_fd_sc_hd__fill_1
XFILLER_52_301 VGND VGND VPWR VPWR sky130_fd_sc_hd__decap_6
XFILLER_52_345 VGND VPWR VPWR VGND sky130_ef_sc_hd__decap_12
Xedgedetect.delay_400ns.genblk1\[849\].delay_unit edgedetect.delay_400ns.genblk1\[849\].delay_unit/A
+ VGND VGND VPWR VPWR edgedetect.delay_400ns.genblk1\[850\].delay_unit/A sky130_fd_sc_hd__clkdlybuf4s50_2
XFILLER_20_253 VGND VPWR VPWR VGND sky130_ef_sc_hd__decap_12
XFILLER_60_29 VGND VPWR VPWR VGND sky130_ef_sc_hd__decap_12
Xclkgen.delay_200ns_3.genblk1\[282\].delay_unit clkgen.delay_200ns_3.genblk1\[282\].delay_unit/A
+ VGND VGND VPWR VPWR clkgen.delay_200ns_3.genblk1\[283\].delay_unit/A sky130_fd_sc_hd__clkdlybuf4s50_2
XFILLER_4_419 VGND VGND VPWR VPWR sky130_fd_sc_hd__fill_1
Xclkgen.delay_200ns_1.genblk1\[83\].delay_unit clkgen.delay_200ns_1.genblk1\[83\].delay_unit/A
+ VGND VGND VPWR VPWR clkgen.delay_200ns_1.genblk1\[84\].delay_unit/A sky130_fd_sc_hd__clkdlybuf4s50_2
XFILLER_69_27 VGND VPWR VPWR VGND sky130_ef_sc_hd__decap_12
XFILLER_87_220 VGND VGND VPWR VPWR sky130_fd_sc_hd__decap_4
XFILLER_87_253 VGND VPWR VPWR VGND sky130_ef_sc_hd__decap_12
XFILLER_87_231 VGND VGND VPWR VPWR sky130_fd_sc_hd__fill_1
XFILLER_75_415 VGND VGND VPWR VPWR sky130_fd_sc_hd__decap_4
XFILLER_18_42 VGND VGND VPWR VPWR sky130_fd_sc_hd__decap_4
XFILLER_28_331 VGND VGND VPWR VPWR sky130_fd_sc_hd__decap_4
XFILLER_70_153 VGND VGND VPWR VPWR sky130_fd_sc_hd__decap_4
Xclkgen.delay_200ns_2.genblk1\[130\].delay_unit clkgen.delay_200ns_2.genblk1\[130\].delay_unit/A
+ VGND VGND VPWR VPWR clkgen.delay_200ns_2.genblk1\[131\].delay_unit/A sky130_fd_sc_hd__clkdlybuf4s50_2
XFILLER_43_367 VGND VGND VPWR VPWR sky130_fd_sc_hd__decap_4
XFILLER_34_41 VGND VGND VPWR VPWR sky130_fd_sc_hd__decap_4
XFILLER_70_197 VGND VGND VPWR VPWR sky130_fd_sc_hd__decap_3
XFILLER_11_220 VGND VGND VPWR VPWR sky130_fd_sc_hd__decap_4
XFILLER_34_85 VGND VGND VPWR VPWR sky130_fd_sc_hd__decap_3
Xedgedetect.delay_400ns.genblk1\[253\].delay_unit edgedetect.delay_400ns.genblk1\[253\].delay_unit/A
+ VGND VGND VPWR VPWR edgedetect.delay_400ns.genblk1\[254\].delay_unit/A sky130_fd_sc_hd__clkdlybuf4s50_2
Xclkgen.delay_200ns_1.genblk1\[164\].delay_unit clkgen.delay_200ns_1.genblk1\[164\].delay_unit/A
+ VGND VGND VPWR VPWR clkgen.delay_200ns_1.genblk1\[165\].delay_unit/A sky130_fd_sc_hd__clkdlybuf4s50_2
Xedgedetect.delay_400ns.genblk1\[552\].delay_unit edgedetect.delay_400ns.genblk1\[552\].delay_unit/A
+ VGND VGND VPWR VPWR edgedetect.delay_400ns.genblk1\[553\].delay_unit/A sky130_fd_sc_hd__clkdlybuf4s50_2
Xclkgen.delay_200ns_1.genblk1\[463\].delay_unit clkgen.delay_200ns_1.genblk1\[463\].delay_unit/A
+ VGND VGND VPWR VPWR clkgen.delay_200ns_1.genblk1\[464\].delay_unit/A sky130_fd_sc_hd__clkdlybuf4s50_2
XFILLER_3_441 VGND VGND VPWR VPWR sky130_fd_sc_hd__decap_6
Xedgedetect.delay_400ns.genblk1\[851\].delay_unit edgedetect.delay_400ns.genblk1\[851\].delay_unit/A
+ VGND VGND VPWR VPWR edgedetect.delay_400ns.genblk1\[852\].delay_unit/A sky130_fd_sc_hd__clkdlybuf4s50_2
XTAP_507 VGND VPWR sky130_fd_sc_hd__tapvpwrvgnd_1
XTAP_518 VGND VPWR sky130_fd_sc_hd__tapvpwrvgnd_1
XTAP_529 VGND VPWR sky130_fd_sc_hd__tapvpwrvgnd_1
XFILLER_78_253 VGND VGND VPWR VPWR sky130_fd_sc_hd__decap_3
XFILLER_78_231 VGND VGND VPWR VPWR sky130_fd_sc_hd__decap_8
Xclkgen.delay_200ns_3.genblk1\[459\].delay_unit clkgen.delay_200ns_3.genblk1\[459\].delay_unit/A
+ VGND VGND VPWR VPWR clkgen.delay_200ns_3.genblk1\[460\].delay_unit/A sky130_fd_sc_hd__clkdlybuf4s50_2
XFILLER_59_93 VGND VPWR VPWR VGND sky130_ef_sc_hd__decap_12
XFILLER_19_331 VGND VGND VPWR VPWR sky130_fd_sc_hd__decap_4
XFILLER_61_164 VGND VGND VPWR VPWR sky130_fd_sc_hd__decap_4
Xclkgen.delay_200ns_2.genblk1\[307\].delay_unit clkgen.delay_200ns_2.genblk1\[307\].delay_unit/A
+ VGND VGND VPWR VPWR clkgen.delay_200ns_2.genblk1\[308\].delay_unit/A sky130_fd_sc_hd__clkdlybuf4s50_2
XFILLER_89_529 VGND VGND VPWR VPWR sky130_fd_sc_hd__decap_3
XFILLER_69_220 VGND VGND VPWR VPWR sky130_fd_sc_hd__decap_4
Xedgedetect.delay_400ns.genblk1\[729\].delay_unit edgedetect.delay_400ns.genblk1\[729\].delay_unit/A
+ VGND VGND VPWR VPWR edgedetect.delay_400ns.genblk1\[730\].delay_unit/A sky130_fd_sc_hd__clkdlybuf4s50_2
XFILLER_57_415 VGND VGND VPWR VPWR sky130_fd_sc_hd__decap_4
Xclkgen.delay_200ns_3.genblk1\[162\].delay_unit clkgen.delay_200ns_3.genblk1\[162\].delay_unit/A
+ VGND VGND VPWR VPWR clkgen.delay_200ns_3.genblk1\[163\].delay_unit/A sky130_fd_sc_hd__clkdlybuf4s50_2
XFILLER_52_153 VGND VGND VPWR VPWR sky130_fd_sc_hd__decap_4
XFILLER_13_529 VGND VGND VPWR VPWR sky130_fd_sc_hd__decap_4
Xclkgen.delay_200ns_3.genblk1\[461\].delay_unit clkgen.delay_200ns_3.genblk1\[461\].delay_unit/A
+ VGND VGND VPWR VPWR clkgen.delay_200ns_3.genblk1\[462\].delay_unit/A sky130_fd_sc_hd__clkdlybuf4s50_2
XFILLER_71_39 VGND VPWR VPWR VGND sky130_ef_sc_hd__decap_12
XFILLER_52_197 VGND VGND VPWR VPWR sky130_fd_sc_hd__decap_3
Xclkgen.delay_200ns_2.genblk1\[196\].delay_unit clkgen.delay_200ns_2.genblk1\[196\].delay_unit/A
+ VGND VGND VPWR VPWR clkgen.delay_200ns_2.genblk1\[197\].delay_unit/A sky130_fd_sc_hd__clkdlybuf4s50_2
XFILLER_4_205 VGND VGND VPWR VPWR sky130_fd_sc_hd__decap_3
Xclkgen.delay_200ns_2.genblk1\[495\].delay_unit clkgen.delay_200ns_2.genblk1\[495\].delay_unit/A
+ VGND VGND VPWR VPWR clkgen.delay_200ns_2.genblk1\[496\].delay_unit/A sky130_fd_sc_hd__clkdlybuf4s50_2
XFILLER_4_238 VGND VGND VPWR VPWR sky130_fd_sc_hd__fill_1
XFILLER_20_54 VGND VGND VPWR VPWR sky130_fd_sc_hd__decap_4
Xedgedetect.delay_400ns.genblk1\[49\].delay_unit edgedetect.delay_400ns.genblk1\[49\].delay_unit/A
+ VGND VGND VPWR VPWR edgedetect.delay_400ns.genblk1\[50\].delay_unit/A sky130_fd_sc_hd__clkdlybuf4s50_2
XFILLER_0_433 VGND VPWR VPWR VGND sky130_ef_sc_hd__decap_12
XFILLER_0_477 VGND VPWR VPWR VGND sky130_ef_sc_hd__decap_12
XFILLER_29_52 VGND VGND VPWR VPWR sky130_fd_sc_hd__decap_4
Xedgedetect.delay_400ns.genblk1\[133\].delay_unit edgedetect.delay_400ns.genblk1\[133\].delay_unit/A
+ VGND VGND VPWR VPWR edgedetect.delay_400ns.genblk1\[134\].delay_unit/A sky130_fd_sc_hd__clkdlybuf4s50_2
XFILLER_16_345 VGND VGND VPWR VPWR sky130_fd_sc_hd__decap_4
Xedgedetect.delay_400ns.genblk1\[432\].delay_unit edgedetect.delay_400ns.genblk1\[432\].delay_unit/A
+ VGND VGND VPWR VPWR edgedetect.delay_400ns.genblk1\[433\].delay_unit/A sky130_fd_sc_hd__clkdlybuf4s50_2
XFILLER_71_484 VGND VGND VPWR VPWR sky130_fd_sc_hd__decap_4
Xclkgen.delay_200ns_1.genblk1\[343\].delay_unit clkgen.delay_200ns_1.genblk1\[343\].delay_unit/A
+ VGND VGND VPWR VPWR clkgen.delay_200ns_1.genblk1\[344\].delay_unit/A sky130_fd_sc_hd__clkdlybuf4s50_2
XFILLER_43_164 VGND VGND VPWR VPWR sky130_fd_sc_hd__decap_4
XFILLER_45_95 VGND VGND VPWR VPWR sky130_fd_sc_hd__decap_4
Xedgedetect.delay_400ns.genblk1\[731\].delay_unit edgedetect.delay_400ns.genblk1\[731\].delay_unit/A
+ VGND VGND VPWR VPWR edgedetect.delay_400ns.genblk1\[732\].delay_unit/A sky130_fd_sc_hd__clkdlybuf4s50_2
XFILLER_31_359 VGND VGND VPWR VPWR sky130_fd_sc_hd__decap_4
Xclkgen.delay_200ns_3.genblk1\[339\].delay_unit clkgen.delay_200ns_3.genblk1\[339\].delay_unit/A
+ VGND VGND VPWR VPWR clkgen.delay_200ns_3.genblk1\[340\].delay_unit/A sky130_fd_sc_hd__clkdlybuf4s50_2
XTAP_315 VGND VPWR sky130_fd_sc_hd__tapvpwrvgnd_1
XTAP_304 VGND VPWR sky130_fd_sc_hd__tapvpwrvgnd_1
XTAP_348 VGND VPWR sky130_fd_sc_hd__tapvpwrvgnd_1
XTAP_337 VGND VPWR sky130_fd_sc_hd__tapvpwrvgnd_1
XTAP_326 VGND VPWR sky130_fd_sc_hd__tapvpwrvgnd_1
XFILLER_3_293 VGND VGND VPWR VPWR sky130_fd_sc_hd__decap_4
XTAP_359 VGND VPWR sky130_fd_sc_hd__tapvpwrvgnd_1
XFILLER_39_415 VGND VGND VPWR VPWR sky130_fd_sc_hd__decap_4
XFILLER_66_245 VGND VGND VPWR VPWR sky130_fd_sc_hd__decap_6
XFILLER_54_407 VGND VPWR VPWR VGND sky130_ef_sc_hd__decap_12
Xedgedetect.delay_400ns.genblk1\[51\].delay_unit edgedetect.delay_400ns.genblk1\[51\].delay_unit/A
+ VGND VGND VPWR VPWR edgedetect.delay_400ns.genblk1\[52\].delay_unit/A sky130_fd_sc_hd__clkdlybuf4s50_2
XFILLER_81_248 VGND VGND VPWR VPWR sky130_fd_sc_hd__decap_4
XFILLER_19_194 VGND VGND VPWR VPWR sky130_fd_sc_hd__decap_4
XFILLER_34_153 VGND VGND VPWR VPWR sky130_fd_sc_hd__decap_4
XFILLER_34_197 VGND VGND VPWR VPWR sky130_fd_sc_hd__fill_2
Xedgedetect.delay_400ns.genblk1\[609\].delay_unit edgedetect.delay_400ns.genblk1\[609\].delay_unit/A
+ VGND VGND VPWR VPWR edgedetect.delay_400ns.genblk1\[610\].delay_unit/A sky130_fd_sc_hd__clkdlybuf4s50_2
Xedgedetect.delay_400ns.genblk1\[908\].delay_unit edgedetect.delay_400ns.genblk1\[908\].delay_unit/A
+ VGND VGND VPWR VPWR edgedetect.delay_400ns.genblk1\[909\].delay_unit/A sky130_fd_sc_hd__clkdlybuf4s50_2
XFILLER_89_337 VGND VPWR VPWR VGND sky130_ef_sc_hd__decap_12
Xclkgen.delay_200ns_3.genblk1\[341\].delay_unit clkgen.delay_200ns_3.genblk1\[341\].delay_unit/A
+ VGND VGND VPWR VPWR clkgen.delay_200ns_3.genblk1\[342\].delay_unit/A sky130_fd_sc_hd__clkdlybuf4s50_2
Xedgedetect.delay_400ns.genblk1\[1016\].delay_unit edgedetect.delay_400ns.genblk1\[1016\].delay_unit/A
+ VGND VGND VPWR VPWR edgedetect.delay_400ns.genblk1\[1017\].delay_unit/A sky130_fd_sc_hd__clkdlybuf4s50_2
XTAP_871 VGND VPWR sky130_fd_sc_hd__tapvpwrvgnd_1
XTAP_860 VGND VPWR sky130_fd_sc_hd__tapvpwrvgnd_1
XTAP_893 VGND VPWR sky130_fd_sc_hd__tapvpwrvgnd_1
XTAP_882 VGND VPWR sky130_fd_sc_hd__tapvpwrvgnd_1
XFILLER_72_248 VGND VGND VPWR VPWR sky130_fd_sc_hd__decap_4
Xclkgen.delay_200ns_2.genblk1\[375\].delay_unit clkgen.delay_200ns_2.genblk1\[375\].delay_unit/A
+ VGND VGND VPWR VPWR clkgen.delay_200ns_2.genblk1\[376\].delay_unit/A sky130_fd_sc_hd__clkdlybuf4s50_2
XFILLER_15_21 VGND VGND VPWR VPWR sky130_fd_sc_hd__fill_1
XFILLER_13_304 VGND VGND VPWR VPWR sky130_fd_sc_hd__decap_4
XFILLER_25_164 VGND VGND VPWR VPWR sky130_fd_sc_hd__decap_4
XFILLER_53_484 VGND VGND VPWR VPWR sky130_fd_sc_hd__decap_4
XFILLER_13_337 VGND VGND VPWR VPWR sky130_fd_sc_hd__decap_6
XFILLER_40_123 VGND VGND VPWR VPWR sky130_fd_sc_hd__decap_4
Xedgedetect.delay_400ns.genblk1\[199\].delay_unit edgedetect.delay_400ns.genblk1\[199\].delay_unit/A
+ VGND VGND VPWR VPWR edgedetect.delay_400ns.genblk1\[200\].delay_unit/A sky130_fd_sc_hd__clkdlybuf4s50_2
XFILLER_15_98 VGND VGND VPWR VPWR sky130_fd_sc_hd__fill_1
XFILLER_9_308 VGND VGND VPWR VPWR sky130_fd_sc_hd__decap_4
Xclkgen.delay_200ns_3.genblk1\[18\].delay_unit clkgen.delay_200ns_3.genblk1\[18\].delay_unit/A
+ VGND VGND VPWR VPWR clkgen.delay_200ns_3.genblk1\[19\].delay_unit/A sky130_fd_sc_hd__clkdlybuf4s50_2
Xedgedetect.delay_400ns.genblk1\[498\].delay_unit edgedetect.delay_400ns.genblk1\[498\].delay_unit/A
+ VGND VGND VPWR VPWR edgedetect.delay_400ns.genblk1\[499\].delay_unit/A sky130_fd_sc_hd__clkdlybuf4s50_2
XFILLER_5_514 VGND VGND VPWR VPWR sky130_fd_sc_hd__decap_4
XFILLER_5_503 VGND VGND VPWR VPWR sky130_fd_sc_hd__fill_1
Xedgedetect.delay_400ns.genblk1\[797\].delay_unit edgedetect.delay_400ns.genblk1\[797\].delay_unit/A
+ VGND VGND VPWR VPWR edgedetect.delay_400ns.genblk1\[798\].delay_unit/A sky130_fd_sc_hd__clkdlybuf4s50_2
Xedgedetect.delay_400ns.genblk1\[312\].delay_unit edgedetect.delay_400ns.genblk1\[312\].delay_unit/A
+ VGND VGND VPWR VPWR edgedetect.delay_400ns.genblk1\[313\].delay_unit/A sky130_fd_sc_hd__clkdlybuf4s50_2
Xclkgen.delay_200ns_1.genblk1\[223\].delay_unit clkgen.delay_200ns_1.genblk1\[223\].delay_unit/A
+ VGND VGND VPWR VPWR clkgen.delay_200ns_1.genblk1\[224\].delay_unit/A sky130_fd_sc_hd__clkdlybuf4s50_2
XFILLER_0_263 VGND VGND VPWR VPWR sky130_fd_sc_hd__decap_4
Xedgedetect.delay_400ns.genblk1\[611\].delay_unit edgedetect.delay_400ns.genblk1\[611\].delay_unit/A
+ VGND VGND VPWR VPWR edgedetect.delay_400ns.genblk1\[612\].delay_unit/A sky130_fd_sc_hd__clkdlybuf4s50_2
Xclkgen.delay_200ns_3.genblk1\[219\].delay_unit clkgen.delay_200ns_3.genblk1\[219\].delay_unit/A
+ VGND VGND VPWR VPWR clkgen.delay_200ns_3.genblk1\[220\].delay_unit/A sky130_fd_sc_hd__clkdlybuf4s50_2
Xclkgen.delay_200ns_1.genblk1\[522\].delay_unit clkgen.delay_200ns_1.genblk1\[522\].delay_unit/A
+ VGND VGND VPWR VPWR clkgen.delay_200ns_1.genblk1\[523\].delay_unit/A sky130_fd_sc_hd__clkdlybuf4s50_2
Xedgedetect.delay_400ns.genblk1\[910\].delay_unit edgedetect.delay_400ns.genblk1\[910\].delay_unit/A
+ VGND VGND VPWR VPWR edgedetect.delay_400ns.genblk1\[911\].delay_unit/A sky130_fd_sc_hd__clkdlybuf4s50_2
XFILLER_56_83 VGND VGND VPWR VPWR sky130_fd_sc_hd__fill_1
XFILLER_63_237 VGND VGND VPWR VPWR sky130_fd_sc_hd__decap_4
Xclkgen.delay_200ns_3.genblk1\[518\].delay_unit clkgen.delay_200ns_3.genblk1\[518\].delay_unit/A
+ VGND VGND VPWR VPWR clkgen.delay_200ns_3.genblk1\[519\].delay_unit/A sky130_fd_sc_hd__clkdlybuf4s50_2
XFILLER_56_94 VGND VGND VPWR VPWR sky130_fd_sc_hd__decap_4
XFILLER_71_281 VGND VPWR VPWR VGND sky130_ef_sc_hd__decap_12
XFILLER_16_197 VGND VGND VPWR VPWR sky130_fd_sc_hd__fill_1
XPHY_170 VGND VGND VPWR VPWR sky130_fd_sc_hd__decap_3
XFILLER_8_374 VGND VGND VPWR VPWR sky130_fd_sc_hd__decap_4
XFILLER_86_307 VGND VGND VPWR VPWR sky130_fd_sc_hd__fill_1
Xclkgen.delay_200ns_3.genblk1\[20\].delay_unit clkgen.delay_200ns_3.genblk1\[20\].delay_unit/A
+ VGND VGND VPWR VPWR clkgen.delay_200ns_3.genblk1\[21\].delay_unit/A sky130_fd_sc_hd__clkdlybuf4s50_2
XTAP_189 VGND VPWR sky130_fd_sc_hd__tapvpwrvgnd_1
XFILLER_35_484 VGND VGND VPWR VPWR sky130_fd_sc_hd__decap_4
XFILLER_22_123 VGND VGND VPWR VPWR sky130_fd_sc_hd__decap_4
XFILLER_50_421 VGND VPWR VPWR VGND sky130_ef_sc_hd__decap_12
XFILLER_10_307 VGND VGND VPWR VPWR sky130_fd_sc_hd__fill_1
XFILLER_10_318 VGND VGND VPWR VPWR sky130_fd_sc_hd__decap_4
Xclkgen.delay_200ns_3.genblk1\[221\].delay_unit clkgen.delay_200ns_3.genblk1\[221\].delay_unit/A
+ VGND VGND VPWR VPWR clkgen.delay_200ns_3.genblk1\[222\].delay_unit/A sky130_fd_sc_hd__clkdlybuf4s50_2
Xclkgen.delay_200ns_1.genblk1\[22\].delay_unit clkgen.delay_200ns_1.genblk1\[22\].delay_unit/A
+ VGND VGND VPWR VPWR clkgen.delay_200ns_1.genblk1\[23\].delay_unit/A sky130_fd_sc_hd__clkdlybuf4s50_2
Xclkgen.delay_200ns_3.genblk1\[520\].delay_unit clkgen.delay_200ns_3.genblk1\[520\].delay_unit/A
+ VGND VGND VPWR VPWR clkgen.delay_200ns_3.genblk1\[521\].delay_unit/A sky130_fd_sc_hd__clkdlybuf4s50_2
XFILLER_77_27 VGND VGND VPWR VPWR sky130_fd_sc_hd__fill_2
Xclkgen.delay_200ns_2.genblk1\[255\].delay_unit clkgen.delay_200ns_2.genblk1\[255\].delay_unit/A
+ VGND VGND VPWR VPWR clkgen.delay_200ns_2.genblk1\[256\].delay_unit/A sky130_fd_sc_hd__clkdlybuf4s50_2
XFILLER_77_329 VGND VGND VPWR VPWR sky130_fd_sc_hd__decap_6
XFILLER_77_38 VGND VGND VPWR VPWR sky130_fd_sc_hd__decap_4
XTAP_690 VGND VPWR sky130_fd_sc_hd__tapvpwrvgnd_1
Xedgedetect.delay_400ns.genblk1\[378\].delay_unit edgedetect.delay_400ns.genblk1\[378\].delay_unit/A
+ VGND VGND VPWR VPWR edgedetect.delay_400ns.genblk1\[379\].delay_unit/A sky130_fd_sc_hd__clkdlybuf4s50_2
Xclkgen.delay_200ns_1.genblk1\[289\].delay_unit clkgen.delay_200ns_1.genblk1\[289\].delay_unit/A
+ VGND VGND VPWR VPWR clkgen.delay_200ns_1.genblk1\[290\].delay_unit/A sky130_fd_sc_hd__clkdlybuf4s50_2
Xedgedetect.delay_400ns.genblk1\[677\].delay_unit edgedetect.delay_400ns.genblk1\[677\].delay_unit/A
+ VGND VGND VPWR VPWR edgedetect.delay_400ns.genblk1\[678\].delay_unit/A sky130_fd_sc_hd__clkdlybuf4s50_2
XFILLER_45_237 VGND VGND VPWR VPWR sky130_fd_sc_hd__decap_4
XFILLER_26_97 VGND VGND VPWR VPWR sky130_fd_sc_hd__decap_4
Xedgedetect.delay_400ns.genblk1\[976\].delay_unit edgedetect.delay_400ns.genblk1\[976\].delay_unit/A
+ VGND VGND VPWR VPWR edgedetect.delay_400ns.genblk1\[977\].delay_unit/A sky130_fd_sc_hd__clkdlybuf4s50_2
XFILLER_53_281 VGND VPWR VPWR VGND sky130_ef_sc_hd__decap_12
XFILLER_13_167 VGND VGND VPWR VPWR sky130_fd_sc_hd__fill_1
Xclkgen.delay_200ns_2.genblk1\[54\].delay_unit clkgen.delay_200ns_2.genblk1\[54\].delay_unit/A
+ VGND VGND VPWR VPWR clkgen.delay_200ns_2.genblk1\[55\].delay_unit/A sky130_fd_sc_hd__clkdlybuf4s50_2
Xclkgen.delay_200ns_1.genblk1\[103\].delay_unit clkgen.delay_200ns_1.genblk1\[103\].delay_unit/A
+ VGND VGND VPWR VPWR clkgen.delay_200ns_1.genblk1\[104\].delay_unit/A sky130_fd_sc_hd__clkdlybuf4s50_2
XFILLER_13_178 VGND VPWR VPWR VGND sky130_ef_sc_hd__decap_12
XFILLER_9_138 VGND VGND VPWR VPWR sky130_fd_sc_hd__decap_4
XFILLER_42_41 VGND VGND VPWR VPWR sky130_fd_sc_hd__decap_4