* NGSPICE file created from adc_clkgen_with_edgedetect.ext - technology: sky130A

.subckt sky130_mm_sc_hd_dlyPoly5ns VPWR in out VGND VNB VPB
X0 a_851_95# in VGND VNB sky130_fd_pr__nfet_01v8 ad=0p pd=0u as=0p ps=0u w=420000u l=3.83e+06u
X1 a_1724_71# a_851_95# VGND VNB sky130_fd_pr__nfet_01v8 ad=0p pd=0u as=0p ps=0u w=420000u l=150000u
X2 VPWR out a_1724_71# VNB sky130_fd_pr__nfet_01v8 ad=0p pd=0u as=0p ps=0u w=420000u l=150000u
X3 VGND out a_1783_329# VPB sky130_fd_pr__pfet_01v8 ad=0p pd=0u as=0p ps=0u w=800000u l=150000u
X4 a_1783_329# out VGND VPB sky130_fd_pr__pfet_01v8 ad=0p pd=0u as=0p ps=0u w=800000u l=150000u
X5 a_1724_71# out VPWR VNB sky130_fd_pr__nfet_01v8 ad=0p pd=0u as=0p ps=0u w=420000u l=150000u
X6 VGND a_851_95# VGND VNB sky130_fd_pr__nfet_01v8 ad=0p pd=0u as=0p ps=0u w=1.375e+06u l=2.25e+06u
X7 a_1783_329# a_851_95# VPWR VPB sky130_fd_pr__pfet_01v8 ad=0p pd=0u as=0p ps=0u w=800000u l=150000u
X8 out a_851_95# a_1783_329# VPB sky130_fd_pr__pfet_01v8 ad=0p pd=0u as=0p ps=0u w=800000u l=150000u
X9 a_851_95# in VPWR VPB sky130_fd_pr__pfet_01v8_lvt ad=0p pd=0u as=0p ps=0u w=800000u l=3.83e+06u
X10 out a_851_95# a_1724_71# VNB sky130_fd_pr__nfet_01v8 ad=0p pd=0u as=0p ps=0u w=420000u l=150000u
.ends

.subckt sky130_fd_sc_hd__decap_4 VGND VPWR VNB VPB
X0 VPWR VGND VPWR VPB sky130_fd_pr__pfet_01v8_hvt ad=0p pd=0u as=0p ps=0u w=870000u l=1.05e+06u
X1 VGND VPWR VGND VNB sky130_fd_pr__nfet_01v8 ad=0p pd=0u as=0p ps=0u w=550000u l=1.05e+06u
.ends

.subckt sky130_fd_sc_hd__inv_2 A Y VPWR VGND VNB VPB
X0 Y A VPWR VPB sky130_fd_pr__pfet_01v8_hvt ad=0p pd=0u as=0p ps=0u w=1e+06u l=150000u
X1 VGND A Y VNB sky130_fd_pr__nfet_01v8 ad=0p pd=0u as=0p ps=0u w=650000u l=150000u
X2 Y A VGND VNB sky130_fd_pr__nfet_01v8 ad=0p pd=0u as=0p ps=0u w=650000u l=150000u
X3 VPWR A Y VPB sky130_fd_pr__pfet_01v8_hvt ad=0p pd=0u as=0p ps=0u w=1e+06u l=150000u
.ends

.subckt sky130_fd_sc_hd__buf_1 VGND VPWR X A VNB VPB
X0 VPWR A a_27_47# VPB sky130_fd_pr__pfet_01v8_hvt ad=0p pd=0u as=0p ps=0u w=790000u l=150000u
X1 X a_27_47# VGND VNB sky130_fd_pr__nfet_01v8 ad=0p pd=0u as=0p ps=0u w=520000u l=150000u
X2 X a_27_47# VPWR VPB sky130_fd_pr__pfet_01v8_hvt ad=0p pd=0u as=0p ps=0u w=790000u l=150000u
X3 VGND A a_27_47# VNB sky130_fd_pr__nfet_01v8 ad=0p pd=0u as=0p ps=0u w=520000u l=150000u
.ends

.subckt sky130_fd_sc_hd__mux2_1 VGND VPWR S A1 A0 X VNB VPB
X0 VPWR a_505_21# a_535_374# VPB sky130_fd_pr__pfet_01v8_hvt ad=0p pd=0u as=0p ps=0u w=420000u l=150000u
X1 a_505_21# S VPWR VPB sky130_fd_pr__pfet_01v8_hvt ad=0p pd=0u as=0p ps=0u w=420000u l=150000u
X2 a_218_374# S VPWR VPB sky130_fd_pr__pfet_01v8_hvt ad=0p pd=0u as=0p ps=0u w=420000u l=150000u
X3 VGND a_505_21# a_439_47# VNB sky130_fd_pr__nfet_01v8 ad=0p pd=0u as=0p ps=0u w=420000u l=150000u
X4 a_76_199# A0 a_218_374# VPB sky130_fd_pr__pfet_01v8_hvt ad=0p pd=0u as=0p ps=0u w=420000u l=150000u
X5 a_505_21# S VGND VNB sky130_fd_pr__nfet_01v8 ad=0p pd=0u as=0p ps=0u w=420000u l=150000u
X6 a_439_47# A0 a_76_199# VNB sky130_fd_pr__nfet_01v8 ad=0p pd=0u as=0p ps=0u w=420000u l=150000u
X7 a_535_374# A1 a_76_199# VPB sky130_fd_pr__pfet_01v8_hvt ad=0p pd=0u as=0p ps=0u w=420000u l=150000u
X8 a_76_199# A1 a_218_47# VNB sky130_fd_pr__nfet_01v8 ad=0p pd=0u as=0p ps=0u w=420000u l=150000u
X9 a_218_47# S VGND VNB sky130_fd_pr__nfet_01v8 ad=0p pd=0u as=0p ps=0u w=420000u l=150000u
X10 VPWR a_76_199# X VPB sky130_fd_pr__pfet_01v8_hvt ad=0p pd=0u as=0p ps=0u w=1e+06u l=150000u
X11 VGND a_76_199# X VNB sky130_fd_pr__nfet_01v8 ad=0p pd=0u as=0p ps=0u w=650000u l=150000u
.ends

.subckt sky130_fd_sc_hd__o21ai_2 B1 Y A2 A1 VGND VPWR VNB VPB
X0 VGND A2 a_29_47# VNB sky130_fd_pr__nfet_01v8 ad=0p pd=0u as=0p ps=0u w=650000u l=150000u
X1 Y B1 a_29_47# VNB sky130_fd_pr__nfet_01v8 ad=0p pd=0u as=0p ps=0u w=650000u l=150000u
X2 VPWR B1 Y VPB sky130_fd_pr__pfet_01v8_hvt ad=0p pd=0u as=0p ps=0u w=1e+06u l=150000u
X3 VPWR A1 a_112_297# VPB sky130_fd_pr__pfet_01v8_hvt ad=0p pd=0u as=0p ps=0u w=1e+06u l=150000u
X4 a_29_47# A2 VGND VNB sky130_fd_pr__nfet_01v8 ad=0p pd=0u as=0p ps=0u w=650000u l=150000u
X5 Y A2 a_112_297# VPB sky130_fd_pr__pfet_01v8_hvt ad=0p pd=0u as=0p ps=0u w=1e+06u l=150000u
X6 VGND A1 a_29_47# VNB sky130_fd_pr__nfet_01v8 ad=0p pd=0u as=0p ps=0u w=650000u l=150000u
X7 a_112_297# A1 VPWR VPB sky130_fd_pr__pfet_01v8_hvt ad=0p pd=0u as=0p ps=0u w=1e+06u l=150000u
X8 a_112_297# A2 Y VPB sky130_fd_pr__pfet_01v8_hvt ad=0p pd=0u as=0p ps=0u w=1e+06u l=150000u
X9 a_29_47# B1 Y VNB sky130_fd_pr__nfet_01v8 ad=0p pd=0u as=0p ps=0u w=650000u l=150000u
X10 Y B1 VPWR VPB sky130_fd_pr__pfet_01v8_hvt ad=0p pd=0u as=0p ps=0u w=1e+06u l=150000u
X11 a_29_47# A1 VGND VNB sky130_fd_pr__nfet_01v8 ad=0p pd=0u as=0p ps=0u w=650000u l=150000u
.ends

.subckt sky130_fd_sc_hd__and2_1 VPWR VGND X B A VNB VPB
X0 VPWR B a_59_75# VPB sky130_fd_pr__pfet_01v8_hvt ad=0p pd=0u as=0p ps=0u w=420000u l=150000u
X1 X a_59_75# VPWR VPB sky130_fd_pr__pfet_01v8_hvt ad=0p pd=0u as=0p ps=0u w=1e+06u l=150000u
X2 VGND B a_145_75# VNB sky130_fd_pr__nfet_01v8 ad=0p pd=0u as=0p ps=0u w=420000u l=150000u
X3 a_59_75# A VPWR VPB sky130_fd_pr__pfet_01v8_hvt ad=0p pd=0u as=0p ps=0u w=420000u l=150000u
X4 X a_59_75# VGND VNB sky130_fd_pr__nfet_01v8 ad=0p pd=0u as=0p ps=0u w=650000u l=150000u
X5 a_145_75# A a_59_75# VNB sky130_fd_pr__nfet_01v8 ad=0p pd=0u as=0p ps=0u w=420000u l=150000u
.ends

.subckt sky130_fd_sc_hd__decap_6 VPWR VGND VNB VPB
X0 VPWR VGND VPWR VPB sky130_fd_pr__pfet_01v8_hvt ad=0p pd=0u as=0p ps=0u w=870000u l=1.97e+06u
X1 VGND VPWR VGND VNB sky130_fd_pr__nfet_01v8 ad=0p pd=0u as=0p ps=0u w=550000u l=1.97e+06u
.ends

.subckt sky130_fd_sc_hd__and3_2 B X A C VPWR VGND VNB VPB
X0 VPWR a_29_311# X VPB sky130_fd_pr__pfet_01v8_hvt ad=0p pd=0u as=0p ps=0u w=1e+06u l=150000u
X1 X a_29_311# VPWR VPB sky130_fd_pr__pfet_01v8_hvt ad=0p pd=0u as=0p ps=0u w=1e+06u l=150000u
X2 VPWR A a_29_311# VPB sky130_fd_pr__pfet_01v8_hvt ad=0p pd=0u as=0p ps=0u w=420000u l=150000u
X3 VGND a_29_311# X VNB sky130_fd_pr__nfet_01v8 ad=0p pd=0u as=0p ps=0u w=650000u l=150000u
X4 a_184_53# B a_112_53# VNB sky130_fd_pr__nfet_01v8 ad=0p pd=0u as=0p ps=0u w=420000u l=150000u
X5 VPWR C a_29_311# VPB sky130_fd_pr__pfet_01v8_hvt ad=0p pd=0u as=0p ps=0u w=420000u l=150000u
X6 X a_29_311# VGND VNB sky130_fd_pr__nfet_01v8 ad=0p pd=0u as=0p ps=0u w=650000u l=150000u
X7 a_112_53# A a_29_311# VNB sky130_fd_pr__nfet_01v8 ad=0p pd=0u as=0p ps=0u w=420000u l=150000u
X8 a_29_311# B VPWR VPB sky130_fd_pr__pfet_01v8_hvt ad=0p pd=0u as=0p ps=0u w=420000u l=150000u
X9 VGND C a_184_53# VNB sky130_fd_pr__nfet_01v8 ad=0p pd=0u as=0p ps=0u w=420000u l=150000u
.ends

.subckt sky130_fd_sc_hd__a21o_2 X B1 A1 A2 VGND VPWR VNB VPB
X0 VPWR a_80_199# X VPB sky130_fd_pr__pfet_01v8_hvt ad=0p pd=0u as=0p ps=0u w=1e+06u l=150000u
X1 X a_80_199# VPWR VPB sky130_fd_pr__pfet_01v8_hvt ad=0p pd=0u as=0p ps=0u w=1e+06u l=150000u
X2 VGND a_80_199# X VNB sky130_fd_pr__nfet_01v8 ad=0p pd=0u as=0p ps=0u w=650000u l=150000u
X3 a_386_297# A2 VPWR VPB sky130_fd_pr__pfet_01v8_hvt ad=0p pd=0u as=0p ps=0u w=1e+06u l=150000u
X4 X a_80_199# VGND VNB sky130_fd_pr__nfet_01v8 ad=0p pd=0u as=0p ps=0u w=650000u l=150000u
X5 a_80_199# B1 VGND VNB sky130_fd_pr__nfet_01v8 ad=0p pd=0u as=0p ps=0u w=650000u l=150000u
X6 a_386_297# B1 a_80_199# VPB sky130_fd_pr__pfet_01v8_hvt ad=0p pd=0u as=0p ps=0u w=1e+06u l=150000u
X7 a_458_47# A1 a_80_199# VNB sky130_fd_pr__nfet_01v8 ad=0p pd=0u as=0p ps=0u w=650000u l=150000u
X8 VPWR A1 a_386_297# VPB sky130_fd_pr__pfet_01v8_hvt ad=0p pd=0u as=0p ps=0u w=1e+06u l=150000u
X9 VGND A2 a_458_47# VNB sky130_fd_pr__nfet_01v8 ad=0p pd=0u as=0p ps=0u w=650000u l=150000u
.ends

.subckt sky130_fd_sc_hd__a21oi_2 B1 A2 A1 Y VGND VPWR VNB VPB
X0 VGND A2 a_285_47# VNB sky130_fd_pr__nfet_01v8 ad=0p pd=0u as=0p ps=0u w=650000u l=150000u
X1 VGND B1 Y VNB sky130_fd_pr__nfet_01v8 ad=0p pd=0u as=0p ps=0u w=650000u l=150000u
X2 Y A1 a_114_47# VNB sky130_fd_pr__nfet_01v8 ad=0p pd=0u as=0p ps=0u w=650000u l=150000u
X3 a_114_47# A2 VGND VNB sky130_fd_pr__nfet_01v8 ad=0p pd=0u as=0p ps=0u w=650000u l=150000u
X4 a_27_297# B1 Y VPB sky130_fd_pr__pfet_01v8_hvt ad=0p pd=0u as=0p ps=0u w=1e+06u l=150000u
X5 a_27_297# A1 VPWR VPB sky130_fd_pr__pfet_01v8_hvt ad=0p pd=0u as=0p ps=0u w=1e+06u l=150000u
X6 Y B1 a_27_297# VPB sky130_fd_pr__pfet_01v8_hvt ad=0p pd=0u as=0p ps=0u w=1e+06u l=150000u
X7 VPWR A2 a_27_297# VPB sky130_fd_pr__pfet_01v8_hvt ad=0p pd=0u as=0p ps=0u w=1e+06u l=150000u
X8 a_27_297# A2 VPWR VPB sky130_fd_pr__pfet_01v8_hvt ad=0p pd=0u as=0p ps=0u w=1e+06u l=150000u
X9 VPWR A1 a_27_297# VPB sky130_fd_pr__pfet_01v8_hvt ad=0p pd=0u as=0p ps=0u w=1e+06u l=150000u
X10 a_285_47# A1 Y VNB sky130_fd_pr__nfet_01v8 ad=0p pd=0u as=0p ps=0u w=650000u l=150000u
X11 Y B1 VGND VNB sky130_fd_pr__nfet_01v8 ad=0p pd=0u as=0p ps=0u w=650000u l=150000u
.ends

.subckt sky130_fd_sc_hd__diode_2 DIODE VGND VPWR VPB VNB
D0 VNB DIODE sky130_fd_pr__diode_pw2nd_05v5 pj=2.64e+06u area=4.347e+11p
.ends

.subckt sky130_fd_sc_hd__decap_3 VPWR VGND VNB VPB
X0 VPWR VGND VPWR VPB sky130_fd_pr__pfet_01v8_hvt ad=0p pd=0u as=0p ps=0u w=870000u l=590000u
X1 VGND VPWR VGND VNB sky130_fd_pr__nfet_01v8 ad=0p pd=0u as=0p ps=0u w=550000u l=590000u
.ends

.subckt sky130_ef_sc_hd__decap_12 VGND VPWR VNB VPB
X0 VPWR VGND VPWR VPB sky130_fd_pr__pfet_01v8_hvt ad=0p pd=0u as=0p ps=0u w=870000u l=4.73e+06u
X1 VGND VPWR VGND VNB sky130_fd_pr__nfet_01v8 ad=0p pd=0u as=0p ps=0u w=550000u l=4.73e+06u
.ends

.subckt sky130_fd_sc_hd__a211o_2 X A2 A1 B1 C1 VGND VPWR VNB VPB
X0 a_79_21# A1 a_348_47# VNB sky130_fd_pr__nfet_01v8 ad=0p pd=0u as=0p ps=0u w=650000u l=150000u
X1 a_79_21# C1 VGND VNB sky130_fd_pr__nfet_01v8 ad=0p pd=0u as=0p ps=0u w=650000u l=150000u
X2 VGND a_79_21# X VNB sky130_fd_pr__nfet_01v8 ad=0p pd=0u as=0p ps=0u w=650000u l=150000u
X3 VPWR a_79_21# X VPB sky130_fd_pr__pfet_01v8_hvt ad=0p pd=0u as=0p ps=0u w=1e+06u l=150000u
X4 a_79_21# C1 a_585_297# VPB sky130_fd_pr__pfet_01v8_hvt ad=0p pd=0u as=0p ps=0u w=1e+06u l=150000u
X5 VPWR A2 a_299_297# VPB sky130_fd_pr__pfet_01v8_hvt ad=0p pd=0u as=0p ps=0u w=1e+06u l=150000u
X6 a_299_297# A1 VPWR VPB sky130_fd_pr__pfet_01v8_hvt ad=0p pd=0u as=0p ps=0u w=1e+06u l=150000u
X7 a_585_297# B1 a_299_297# VPB sky130_fd_pr__pfet_01v8_hvt ad=0p pd=0u as=0p ps=0u w=1e+06u l=150000u
X8 a_348_47# A2 VGND VNB sky130_fd_pr__nfet_01v8 ad=0p pd=0u as=0p ps=0u w=650000u l=150000u
X9 X a_79_21# VPWR VPB sky130_fd_pr__pfet_01v8_hvt ad=0p pd=0u as=0p ps=0u w=1e+06u l=150000u
X10 X a_79_21# VGND VNB sky130_fd_pr__nfet_01v8 ad=0p pd=0u as=0p ps=0u w=650000u l=150000u
X11 VGND B1 a_79_21# VNB sky130_fd_pr__nfet_01v8 ad=0p pd=0u as=0p ps=0u w=650000u l=150000u
.ends

.subckt sky130_fd_sc_hd__and2_2 VPWR VGND A X B VNB VPB
X0 X a_61_75# VPWR VPB sky130_fd_pr__pfet_01v8_hvt ad=0p pd=0u as=0p ps=0u w=1e+06u l=150000u
X1 VPWR a_61_75# X VPB sky130_fd_pr__pfet_01v8_hvt ad=0p pd=0u as=0p ps=0u w=1e+06u l=150000u
X2 VPWR B a_61_75# VPB sky130_fd_pr__pfet_01v8_hvt ad=0p pd=0u as=0p ps=0u w=420000u l=150000u
X3 VGND B a_147_75# VNB sky130_fd_pr__nfet_01v8 ad=0p pd=0u as=0p ps=0u w=420000u l=150000u
X4 X a_61_75# VGND VNB sky130_fd_pr__nfet_01v8 ad=0p pd=0u as=0p ps=0u w=650000u l=150000u
X5 VGND a_61_75# X VNB sky130_fd_pr__nfet_01v8 ad=0p pd=0u as=0p ps=0u w=650000u l=150000u
X6 a_61_75# A VPWR VPB sky130_fd_pr__pfet_01v8_hvt ad=0p pd=0u as=0p ps=0u w=420000u l=150000u
X7 a_147_75# A a_61_75# VNB sky130_fd_pr__nfet_01v8 ad=0p pd=0u as=0p ps=0u w=420000u l=150000u
.ends

.subckt sky130_fd_sc_hd__o21a_2 A1 B1 A2 X VGND VPWR VNB VPB
X0 VPWR A1 a_470_297# VPB sky130_fd_pr__pfet_01v8_hvt ad=0p pd=0u as=0p ps=0u w=1e+06u l=150000u
X1 a_79_21# B1 VPWR VPB sky130_fd_pr__pfet_01v8_hvt ad=0p pd=0u as=0p ps=0u w=1e+06u l=150000u
X2 VGND a_79_21# X VNB sky130_fd_pr__nfet_01v8 ad=0p pd=0u as=0p ps=0u w=650000u l=150000u
X3 VGND A2 a_384_47# VNB sky130_fd_pr__nfet_01v8 ad=0p pd=0u as=0p ps=0u w=650000u l=150000u
X4 a_470_297# A2 a_79_21# VPB sky130_fd_pr__pfet_01v8_hvt ad=0p pd=0u as=0p ps=0u w=1e+06u l=150000u
X5 VPWR a_79_21# X VPB sky130_fd_pr__pfet_01v8_hvt ad=0p pd=0u as=0p ps=0u w=1e+06u l=150000u
X6 a_384_47# B1 a_79_21# VNB sky130_fd_pr__nfet_01v8 ad=0p pd=0u as=0p ps=0u w=650000u l=150000u
X7 a_384_47# A1 VGND VNB sky130_fd_pr__nfet_01v8 ad=0p pd=0u as=0p ps=0u w=650000u l=150000u
X8 X a_79_21# VPWR VPB sky130_fd_pr__pfet_01v8_hvt ad=0p pd=0u as=0p ps=0u w=1e+06u l=150000u
X9 X a_79_21# VGND VNB sky130_fd_pr__nfet_01v8 ad=0p pd=0u as=0p ps=0u w=650000u l=150000u
.ends

.subckt sky130_fd_sc_hd__nand2_2 Y A B VGND VPWR VNB VPB
X0 VPWR A Y VPB sky130_fd_pr__pfet_01v8_hvt ad=0p pd=0u as=0p ps=0u w=1e+06u l=150000u
X1 Y A VPWR VPB sky130_fd_pr__pfet_01v8_hvt ad=0p pd=0u as=0p ps=0u w=1e+06u l=150000u
X2 VPWR B Y VPB sky130_fd_pr__pfet_01v8_hvt ad=0p pd=0u as=0p ps=0u w=1e+06u l=150000u
X3 a_27_47# B VGND VNB sky130_fd_pr__nfet_01v8 ad=0p pd=0u as=0p ps=0u w=650000u l=150000u
X4 a_27_47# A Y VNB sky130_fd_pr__nfet_01v8 ad=0p pd=0u as=0p ps=0u w=650000u l=150000u
X5 Y A a_27_47# VNB sky130_fd_pr__nfet_01v8 ad=0p pd=0u as=0p ps=0u w=650000u l=150000u
X6 Y B VPWR VPB sky130_fd_pr__pfet_01v8_hvt ad=0p pd=0u as=0p ps=0u w=1e+06u l=150000u
X7 VGND B a_27_47# VNB sky130_fd_pr__nfet_01v8 ad=0p pd=0u as=0p ps=0u w=650000u l=150000u
.ends

.subckt sky130_fd_sc_hd__decap_8 VPWR VGND VNB VPB
X0 VPWR VGND VPWR VPB sky130_fd_pr__pfet_01v8_hvt ad=0p pd=0u as=0p ps=0u w=870000u l=2.89e+06u
X1 VGND VPWR VGND VNB sky130_fd_pr__nfet_01v8 ad=0p pd=0u as=0p ps=0u w=550000u l=2.89e+06u
.ends

.subckt sky130_fd_sc_hd__or2_2 B X A VPWR VGND VNB VPB
X0 a_121_297# B a_39_297# VPB sky130_fd_pr__pfet_01v8_hvt ad=0p pd=0u as=0p ps=0u w=420000u l=150000u
X1 X a_39_297# VGND VNB sky130_fd_pr__nfet_01v8 ad=0p pd=0u as=0p ps=0u w=650000u l=150000u
X2 VPWR a_39_297# X VPB sky130_fd_pr__pfet_01v8_hvt ad=0p pd=0u as=0p ps=0u w=1e+06u l=150000u
X3 X a_39_297# VPWR VPB sky130_fd_pr__pfet_01v8_hvt ad=0p pd=0u as=0p ps=0u w=1e+06u l=150000u
X4 VGND a_39_297# X VNB sky130_fd_pr__nfet_01v8 ad=0p pd=0u as=0p ps=0u w=650000u l=150000u
X5 VPWR A a_121_297# VPB sky130_fd_pr__pfet_01v8_hvt ad=0p pd=0u as=0p ps=0u w=420000u l=150000u
X6 VGND A a_39_297# VNB sky130_fd_pr__nfet_01v8 ad=0p pd=0u as=0p ps=0u w=420000u l=150000u
X7 a_39_297# B VGND VNB sky130_fd_pr__nfet_01v8 ad=0p pd=0u as=0p ps=0u w=420000u l=150000u
.ends

.subckt sky130_fd_sc_hd__a31o_2 X B1 A3 A1 A2 VGND VPWR VNB VPB
X0 VPWR A2 a_277_297# VPB sky130_fd_pr__pfet_01v8_hvt ad=0p pd=0u as=0p ps=0u w=1e+06u l=150000u
X1 a_277_297# A1 VPWR VPB sky130_fd_pr__pfet_01v8_hvt ad=0p pd=0u as=0p ps=0u w=1e+06u l=150000u
X2 a_79_21# B1 a_277_297# VPB sky130_fd_pr__pfet_01v8_hvt ad=0p pd=0u as=0p ps=0u w=1e+06u l=150000u
X3 a_277_297# A3 VPWR VPB sky130_fd_pr__pfet_01v8_hvt ad=0p pd=0u as=0p ps=0u w=1e+06u l=150000u
X4 VPWR a_79_21# X VPB sky130_fd_pr__pfet_01v8_hvt ad=0p pd=0u as=0p ps=0u w=1e+06u l=150000u
X5 VGND a_79_21# X VNB sky130_fd_pr__nfet_01v8 ad=0p pd=0u as=0p ps=0u w=650000u l=150000u
X6 a_361_47# A2 a_277_47# VNB sky130_fd_pr__nfet_01v8 ad=0p pd=0u as=0p ps=0u w=650000u l=150000u
X7 a_277_47# A3 VGND VNB sky130_fd_pr__nfet_01v8 ad=0p pd=0u as=0p ps=0u w=650000u l=150000u
X8 VGND B1 a_79_21# VNB sky130_fd_pr__nfet_01v8 ad=0p pd=0u as=0p ps=0u w=650000u l=150000u
X9 a_79_21# A1 a_361_47# VNB sky130_fd_pr__nfet_01v8 ad=0p pd=0u as=0p ps=0u w=650000u l=150000u
X10 X a_79_21# VPWR VPB sky130_fd_pr__pfet_01v8_hvt ad=0p pd=0u as=0p ps=0u w=1e+06u l=150000u
X11 X a_79_21# VGND VNB sky130_fd_pr__nfet_01v8 ad=0p pd=0u as=0p ps=0u w=650000u l=150000u
.ends

.subckt sky130_fd_sc_hd__nor2_2 B Y A VGND VPWR VNB VPB
X0 Y B a_27_297# VPB sky130_fd_pr__pfet_01v8_hvt ad=0p pd=0u as=0p ps=0u w=1e+06u l=150000u
X1 Y B VGND VNB sky130_fd_pr__nfet_01v8 ad=0p pd=0u as=0p ps=0u w=650000u l=150000u
X2 a_27_297# A VPWR VPB sky130_fd_pr__pfet_01v8_hvt ad=0p pd=0u as=0p ps=0u w=1e+06u l=150000u
X3 VGND A Y VNB sky130_fd_pr__nfet_01v8 ad=0p pd=0u as=0p ps=0u w=650000u l=150000u
X4 Y A VGND VNB sky130_fd_pr__nfet_01v8 ad=0p pd=0u as=0p ps=0u w=650000u l=150000u
X5 VGND B Y VNB sky130_fd_pr__nfet_01v8 ad=0p pd=0u as=0p ps=0u w=650000u l=150000u
X6 VPWR A a_27_297# VPB sky130_fd_pr__pfet_01v8_hvt ad=0p pd=0u as=0p ps=0u w=1e+06u l=150000u
X7 a_27_297# B Y VPB sky130_fd_pr__pfet_01v8_hvt ad=0p pd=0u as=0p ps=0u w=1e+06u l=150000u
.ends

.subckt sky130_fd_sc_hd__a31oi_2 A3 B1 Y A1 A2 VPWR VGND VNB VPB
X0 VGND B1 Y VNB sky130_fd_pr__nfet_01v8 ad=0p pd=0u as=0p ps=0u w=650000u l=150000u
X1 VPWR A1 a_27_297# VPB sky130_fd_pr__pfet_01v8_hvt ad=0p pd=0u as=0p ps=0u w=1e+06u l=150000u
X2 a_27_297# A2 VPWR VPB sky130_fd_pr__pfet_01v8_hvt ad=0p pd=0u as=0p ps=0u w=1e+06u l=150000u
X3 a_27_297# B1 Y VPB sky130_fd_pr__pfet_01v8_hvt ad=0p pd=0u as=0p ps=0u w=1e+06u l=150000u
X4 a_277_47# A1 Y VNB sky130_fd_pr__nfet_01v8 ad=0p pd=0u as=0p ps=0u w=650000u l=150000u
X5 VPWR A2 a_27_297# VPB sky130_fd_pr__pfet_01v8_hvt ad=0p pd=0u as=0p ps=0u w=1e+06u l=150000u
X6 a_27_297# A3 VPWR VPB sky130_fd_pr__pfet_01v8_hvt ad=0p pd=0u as=0p ps=0u w=1e+06u l=150000u
X7 a_27_47# A3 VGND VNB sky130_fd_pr__nfet_01v8 ad=0p pd=0u as=0p ps=0u w=650000u l=150000u
X8 a_27_47# A2 a_277_47# VNB sky130_fd_pr__nfet_01v8 ad=0p pd=0u as=0p ps=0u w=650000u l=150000u
X9 a_27_297# A1 VPWR VPB sky130_fd_pr__pfet_01v8_hvt ad=0p pd=0u as=0p ps=0u w=1e+06u l=150000u
X10 Y B1 a_27_297# VPB sky130_fd_pr__pfet_01v8_hvt ad=0p pd=0u as=0p ps=0u w=1e+06u l=150000u
X11 a_277_47# A2 a_27_47# VNB sky130_fd_pr__nfet_01v8 ad=0p pd=0u as=0p ps=0u w=650000u l=150000u
X12 Y B1 VGND VNB sky130_fd_pr__nfet_01v8 ad=0p pd=0u as=0p ps=0u w=650000u l=150000u
X13 Y A1 a_277_47# VNB sky130_fd_pr__nfet_01v8 ad=0p pd=0u as=0p ps=0u w=650000u l=150000u
X14 VPWR A3 a_27_297# VPB sky130_fd_pr__pfet_01v8_hvt ad=0p pd=0u as=0p ps=0u w=1e+06u l=150000u
X15 VGND A3 a_27_47# VNB sky130_fd_pr__nfet_01v8 ad=0p pd=0u as=0p ps=0u w=650000u l=150000u
.ends

.subckt sky130_fd_sc_hd__o31a_2 X A1 A2 B1 A3 VGND VPWR VNB VPB
X0 a_108_21# B1 a_346_47# VNB sky130_fd_pr__nfet_01v8 ad=0p pd=0u as=0p ps=0u w=650000u l=150000u
X1 a_346_47# A3 VGND VNB sky130_fd_pr__nfet_01v8 ad=0p pd=0u as=0p ps=0u w=650000u l=150000u
X2 X a_108_21# VGND VNB sky130_fd_pr__nfet_01v8 ad=0p pd=0u as=0p ps=0u w=650000u l=150000u
X3 a_108_21# A3 a_430_297# VPB sky130_fd_pr__pfet_01v8_hvt ad=0p pd=0u as=0p ps=0u w=1e+06u l=150000u
X4 a_430_297# A2 a_346_297# VPB sky130_fd_pr__pfet_01v8_hvt ad=0p pd=0u as=0p ps=0u w=1e+06u l=150000u
X5 VPWR a_108_21# X VPB sky130_fd_pr__pfet_01v8_hvt ad=0p pd=0u as=0p ps=0u w=1e+06u l=150000u
X6 a_346_297# A1 VPWR VPB sky130_fd_pr__pfet_01v8_hvt ad=0p pd=0u as=0p ps=0u w=1e+06u l=150000u
X7 VGND A2 a_346_47# VNB sky130_fd_pr__nfet_01v8 ad=0p pd=0u as=0p ps=0u w=650000u l=150000u
X8 X a_108_21# VPWR VPB sky130_fd_pr__pfet_01v8_hvt ad=0p pd=0u as=0p ps=0u w=1e+06u l=150000u
X9 VPWR B1 a_108_21# VPB sky130_fd_pr__pfet_01v8_hvt ad=0p pd=0u as=0p ps=0u w=1e+06u l=150000u
X10 VGND a_108_21# X VNB sky130_fd_pr__nfet_01v8 ad=0p pd=0u as=0p ps=0u w=650000u l=150000u
X11 a_346_47# A1 VGND VNB sky130_fd_pr__nfet_01v8 ad=0p pd=0u as=0p ps=0u w=650000u l=150000u
.ends

.subckt sky130_fd_sc_hd__o211a_2 C1 B1 A2 A1 X VPWR VGND VNB VPB
X0 a_27_47# B1 VPWR VPB sky130_fd_pr__pfet_01v8_hvt ad=0p pd=0u as=0p ps=0u w=1e+06u l=150000u
X1 VGND a_27_47# X VNB sky130_fd_pr__nfet_01v8 ad=0p pd=0u as=0p ps=0u w=650000u l=150000u
X2 VPWR C1 a_27_47# VPB sky130_fd_pr__pfet_01v8_hvt ad=0p pd=0u as=0p ps=0u w=1e+06u l=150000u
X3 VPWR A1 a_373_297# VPB sky130_fd_pr__pfet_01v8_hvt ad=0p pd=0u as=0p ps=0u w=1e+06u l=150000u
X4 a_182_47# A2 VGND VNB sky130_fd_pr__nfet_01v8 ad=0p pd=0u as=0p ps=0u w=650000u l=150000u
X5 X a_27_47# VPWR VPB sky130_fd_pr__pfet_01v8_hvt ad=0p pd=0u as=0p ps=0u w=1e+06u l=150000u
X6 a_182_47# B1 a_110_47# VNB sky130_fd_pr__nfet_01v8 ad=0p pd=0u as=0p ps=0u w=650000u l=150000u
X7 X a_27_47# VGND VNB sky130_fd_pr__nfet_01v8 ad=0p pd=0u as=0p ps=0u w=650000u l=150000u
X8 a_373_297# A2 a_27_47# VPB sky130_fd_pr__pfet_01v8_hvt ad=0p pd=0u as=0p ps=0u w=1e+06u l=150000u
X9 a_110_47# C1 a_27_47# VNB sky130_fd_pr__nfet_01v8 ad=0p pd=0u as=0p ps=0u w=650000u l=150000u
X10 VPWR a_27_47# X VPB sky130_fd_pr__pfet_01v8_hvt ad=0p pd=0u as=0p ps=0u w=1e+06u l=150000u
X11 VGND A1 a_182_47# VNB sky130_fd_pr__nfet_01v8 ad=0p pd=0u as=0p ps=0u w=650000u l=150000u
.ends

.subckt sky130_fd_sc_hd__buf_4 VPWR VGND X A VNB VPB
X0 VPWR a_27_47# X VPB sky130_fd_pr__pfet_01v8_hvt ad=0p pd=0u as=0p ps=0u w=1e+06u l=150000u
X1 X a_27_47# VPWR VPB sky130_fd_pr__pfet_01v8_hvt ad=0p pd=0u as=0p ps=0u w=1e+06u l=150000u
X2 VPWR a_27_47# X VPB sky130_fd_pr__pfet_01v8_hvt ad=0p pd=0u as=0p ps=0u w=1e+06u l=150000u
X3 X a_27_47# VPWR VPB sky130_fd_pr__pfet_01v8_hvt ad=0p pd=0u as=0p ps=0u w=1e+06u l=150000u
X4 X a_27_47# VGND VNB sky130_fd_pr__nfet_01v8 ad=0p pd=0u as=0p ps=0u w=650000u l=150000u
X5 X a_27_47# VGND VNB sky130_fd_pr__nfet_01v8 ad=0p pd=0u as=0p ps=0u w=650000u l=150000u
X6 VGND a_27_47# X VNB sky130_fd_pr__nfet_01v8 ad=0p pd=0u as=0p ps=0u w=650000u l=150000u
X7 VGND a_27_47# X VNB sky130_fd_pr__nfet_01v8 ad=0p pd=0u as=0p ps=0u w=650000u l=150000u
X8 VPWR A a_27_47# VPB sky130_fd_pr__pfet_01v8_hvt ad=0p pd=0u as=0p ps=0u w=1e+06u l=150000u
X9 VGND A a_27_47# VNB sky130_fd_pr__nfet_01v8 ad=0p pd=0u as=0p ps=0u w=650000u l=150000u
.ends

.subckt adc_clkgen_with_edgedetect VGND VPWR clk_comp clk_dig dlycontrol1[0] dlycontrol1[1]
+ dlycontrol1[2] dlycontrol1[3] dlycontrol1[4] dlycontrol2[0] dlycontrol2[1] dlycontrol2[2]
+ dlycontrol2[3] dlycontrol2[4] dlycontrol3[0] dlycontrol3[1] dlycontrol3[2] dlycontrol3[3]
+ dlycontrol3[4] dlycontrol4[0] dlycontrol4[1] dlycontrol4[2] dlycontrol4[3] dlycontrol4[4]
+ dlycontrol4[5] ena_in enable_dlycontrol ndecision_finish nsample_n nsample_n_buf
+ nsample_p nsample_p_buf sample_n sample_n_buf sample_p sample_p_buf start_conv
Xedgedetect.dly200cell.genblk1\[14\].delay_unit VPWR edgedetect.dly200cell.genblk1\[14\].and1/X
+ edgedetect.dly200cell.genblk1\[14\].mux1/A0 VGND VGND VPWR sky130_mm_sc_hd_dlyPoly5ns
XFILLER_13_111 VGND VPWR VGND VPWR sky130_fd_sc_hd__decap_4
X_432_ _432_/A _432_/Y VPWR VGND VGND VPWR sky130_fd_sc_hd__inv_2
X_294_ VGND VPWR _302_/A _294_/A VGND VPWR sky130_fd_sc_hd__buf_1
Xclkgen.delay_100ns_2.genblk1\[19\].mux1 VGND VPWR _379_/A clkgen.delay_100ns_2.genblk1\[19\].and1/B
+ clkgen.delay_100ns_2.genblk1\[19\].mux1/A0 _430_/A VGND VPWR sky130_fd_sc_hd__mux2_1
X_363_ _351_/A _364_/A _362_/X dlycontrol2[4] VGND VPWR VGND VPWR sky130_fd_sc_hd__o21ai_2
Xclkgen.delay_100ns_1.genblk1\[9\].delay_unit VPWR clkgen.delay_100ns_1.genblk1\[9\].and1/X
+ clkgen.delay_100ns_1.genblk1\[9\].mux1/A0 VGND VGND VPWR sky130_mm_sc_hd_dlyPoly5ns
Xclkgen.delay_100ns_1.genblk1\[11\].and1 VPWR VGND clkgen.delay_100ns_1.genblk1\[11\].and1/X
+ clkgen.delay_100ns_1.genblk1\[11\].and1/B _408_/A VGND VPWR sky130_fd_sc_hd__and2_1
Xedgedetect.dly200cell.genblk1\[17\].mux1 VGND VPWR _235_/Y edgedetect.dly200cell.genblk1\[17\].and1/B
+ edgedetect.dly200cell.genblk1\[17\].mux1/A0 edgedetect.dly200cell.genblk1\[18\].and1/B
+ VGND VPWR sky130_fd_sc_hd__mux2_1
XFILLER_12_32 VPWR VGND VGND VPWR sky130_fd_sc_hd__decap_6
XFILLER_2_335 VPWR VGND VGND VPWR sky130_fd_sc_hd__decap_6
XFILLER_18_258 VGND VPWR VGND VPWR sky130_fd_sc_hd__decap_4
Xedgedetect.dly200cell.genblk1\[2\].mux1 VGND VPWR _200_/Y edgedetect.dly200cell.genblk1\[2\].and1/B
+ edgedetect.dly200cell.genblk1\[2\].mux1/A0 edgedetect.dly200cell.genblk1\[3\].and1/B
+ VGND VPWR sky130_fd_sc_hd__mux2_1
X_346_ dlycontrol2[2] _347_/B _414_/A dlycontrol2[1] VPWR VGND VGND VPWR sky130_fd_sc_hd__and3_2
X_415_ _426_/A _415_/Y VPWR VGND VGND VPWR sky130_fd_sc_hd__inv_2
X_277_ _278_/A _281_/A _251_/X _243_/B VGND VPWR VGND VPWR sky130_fd_sc_hd__a21o_2
XFILLER_17_280 VGND VPWR VGND VPWR sky130_fd_sc_hd__decap_4
Xedgedetect.dly200cell.genblk1\[6\].and1 VPWR VGND edgedetect.dly200cell.genblk1\[6\].and1/X
+ edgedetect.dly200cell.genblk1\[6\].and1/B _440_/X VGND VPWR sky130_fd_sc_hd__and2_1
X_200_ _438_/A _236_/B _184_/X _200_/Y VGND VPWR VGND VPWR sky130_fd_sc_hd__a21oi_2
XFILLER_23_294 VGND VPWR VGND VPWR sky130_fd_sc_hd__decap_4
X_329_ VGND VPWR _330_/A _329_/A VGND VPWR sky130_fd_sc_hd__buf_1
XFILLER_11_286 VGND VPWR VGND VPWR sky130_fd_sc_hd__decap_4
XFILLER_25_301 VGND VPWR VGND VPWR sky130_fd_sc_hd__decap_4
Xedgedetect.dly200cell.genblk1\[19\].delay_unit VPWR edgedetect.dly200cell.genblk1\[19\].and1/X
+ edgedetect.dly200cell.genblk1\[19\].mux1/A0 VGND VGND VPWR sky130_mm_sc_hd_dlyPoly5ns
XFILLER_4_238 VGND VPWR VGND VPWR sky130_fd_sc_hd__decap_4
Xclkgen.delay_100ns_2.genblk1\[3\].mux1 VGND VPWR _341_/Y clkgen.delay_100ns_2.genblk1\[3\].and1/B
+ clkgen.delay_100ns_2.genblk1\[3\].mux1/A0 clkgen.delay_100ns_2.genblk1\[4\].and1/B
+ VGND VPWR sky130_fd_sc_hd__mux2_1
XANTENNA_5 start_conv VGND VPWR VPWR VGND sky130_fd_sc_hd__diode_2
Xedgedetect.dly200cell.genblk1\[21\].delay_unit VPWR edgedetect.dly200cell.genblk1\[21\].and1/X
+ edgedetect.dly200cell.genblk1\[21\].mux1/A0 VGND VGND VPWR sky130_mm_sc_hd_dlyPoly5ns
XFILLER_13_3 VPWR VGND VGND VPWR sky130_fd_sc_hd__decap_3
XFILLER_22_315 VGND VPWR VGND VPWR sky130_fd_sc_hd__decap_4
Xclkgen.delay_100ns_2.genblk1\[7\].and1 VPWR VGND clkgen.delay_100ns_2.genblk1\[7\].and1/X
+ clkgen.delay_100ns_2.genblk1\[7\].and1/B _351_/A VGND VPWR sky130_fd_sc_hd__and2_1
XFILLER_25_142 VGND VPWR VGND VPWR sky130_fd_sc_hd__decap_4
XFILLER_15_76 VGND VPWR VGND VPWR sky130_fd_sc_hd__decap_4
XFILLER_13_359 VGND VPWR VGND VPWR sky130_ef_sc_hd__decap_12
XFILLER_0_241 VPWR VGND VGND VPWR sky130_fd_sc_hd__decap_6
XFILLER_0_285 VGND VPWR VGND VPWR sky130_ef_sc_hd__decap_12
XFILLER_8_330 VGND VPWR VGND VPWR sky130_fd_sc_hd__decap_4
XFILLER_22_167 VPWR VGND VGND VPWR sky130_fd_sc_hd__decap_6
X_431_ _431_/X _429_/Y _431_/A1 _431_/B1 _430_/Y VGND VPWR VGND VPWR sky130_fd_sc_hd__a211o_2
X_362_ VPWR VGND dlycontrol2[2] _362_/X dlycontrol2[1] VGND VPWR sky130_fd_sc_hd__and2_2
X_293_ dlycontrol3[3] enable_dlycontrol dlycontrol3[4] _294_/A VGND VPWR VGND VPWR
+ sky130_fd_sc_hd__o21a_2
XFILLER_9_138 VGND VPWR VGND VPWR sky130_fd_sc_hd__decap_4
XFILLER_5_300 VGND VPWR VGND VPWR sky130_fd_sc_hd__decap_4
XFILLER_12_44 VGND VPWR VGND VPWR sky130_fd_sc_hd__decap_4
XFILLER_12_99 VGND VPWR VGND VPWR sky130_fd_sc_hd__decap_4
X_414_ _426_/A _414_/A dlycontrol1[4] VGND VPWR VGND VPWR sky130_fd_sc_hd__nand2_2
X_276_ _276_/A _276_/Y VPWR VGND VGND VPWR sky130_fd_sc_hd__inv_2
X_345_ _345_/A _345_/Y VPWR VGND VGND VPWR sky130_fd_sc_hd__inv_2
Xedgedetect.dly200cell.genblk1\[23\].mux1 VGND VPWR _249_/Y edgedetect.dly200cell.genblk1\[23\].and1/B
+ edgedetect.dly200cell.genblk1\[23\].mux1/A0 edgedetect.dly200cell.genblk1\[24\].and1/B
+ VGND VPWR sky130_fd_sc_hd__mux2_1
XFILLER_23_43 VPWR VGND VGND VPWR sky130_fd_sc_hd__decap_8
Xedgedetect.dly200cell.genblk1\[27\].and1 VPWR VGND edgedetect.dly200cell.genblk1\[27\].and1/X
+ edgedetect.dly200cell.genblk1\[27\].and1/B _257_/Y VGND VPWR sky130_fd_sc_hd__and2_1
Xedgedetect.dly200cell.genblk1\[26\].delay_unit VPWR edgedetect.dly200cell.genblk1\[26\].and1/X
+ edgedetect.dly200cell.genblk1\[26\].mux1/A0 VGND VGND VPWR sky130_mm_sc_hd_dlyPoly5ns
X_259_ _259_/A _259_/Y VPWR VGND VGND VPWR sky130_fd_sc_hd__inv_2
X_328_ _328_/B _329_/A _328_/A VPWR VGND VGND VPWR sky130_fd_sc_hd__or2_2
XFILLER_9_34 VGND VPWR VGND VPWR sky130_fd_sc_hd__decap_4
Xclkgen.delay_100ns_2.genblk1\[12\].and1 VPWR VGND clkgen.delay_100ns_2.genblk1\[12\].and1/X
+ clkgen.delay_100ns_2.genblk1\[12\].and1/B _461_/X VGND VPWR sky130_fd_sc_hd__and2_1
XFILLER_20_276 VPWR VGND VGND VPWR sky130_fd_sc_hd__decap_3
XFILLER_18_43 VPWR VGND VGND VPWR sky130_fd_sc_hd__decap_6
XFILLER_7_203 VGND VPWR VGND VPWR sky130_fd_sc_hd__decap_4
Xedgedetect.dly200cell.genblk1\[10\].and1 VPWR VGND edgedetect.dly200cell.genblk1\[10\].and1/X
+ edgedetect.dly200cell.genblk1\[9\].mux1/X _216_/A VGND VPWR sky130_fd_sc_hd__and2_1
Xclkgen.delay_100ns_3.genblk1\[1\].mux1 VGND VPWR _289_/A clkgen.delay_100ns_3.genblk1\[1\].and1/B
+ clkgen.delay_100ns_3.genblk1\[1\].mux1/A0 clkgen.delay_100ns_3.genblk1\[2\].and1/B
+ VGND VPWR sky130_fd_sc_hd__mux2_1
XFILLER_6_291 VGND VPWR VGND VPWR sky130_fd_sc_hd__decap_4
XFILLER_16_324 VGND VPWR VGND VPWR sky130_fd_sc_hd__decap_4
Xclkgen.delay_100ns_3.genblk1\[5\].and1 VPWR VGND clkgen.delay_100ns_3.genblk1\[5\].and1/X
+ clkgen.delay_100ns_3.genblk1\[5\].and1/B _299_/Y VGND VPWR sky130_fd_sc_hd__and2_1
XANTENNA_6 _458_/X VGND VPWR VPWR VGND sky130_fd_sc_hd__diode_2
XFILLER_3_294 VGND VPWR VGND VPWR sky130_fd_sc_hd__decap_4
XFILLER_19_173 VGND VPWR VGND VPWR sky130_fd_sc_hd__decap_4
XFILLER_25_187 VPWR VGND VGND VPWR sky130_fd_sc_hd__decap_6
XFILLER_25_165 VGND VPWR VGND VPWR sky130_fd_sc_hd__decap_4
XFILLER_25_121 VPWR VGND VGND VPWR sky130_fd_sc_hd__decap_3
XFILLER_13_338 VGND VPWR VGND VPWR sky130_fd_sc_hd__decap_4
Xclkgen.delay_100ns_2.genblk1\[12\].delay_unit VPWR clkgen.delay_100ns_2.genblk1\[12\].and1/X
+ clkgen.delay_100ns_2.genblk1\[12\].mux1/A0 VGND VGND VPWR sky130_mm_sc_hd_dlyPoly5ns
XFILLER_0_275 VGND VPWR VGND VPWR sky130_fd_sc_hd__decap_4
XFILLER_0_297 VGND VPWR VGND VPWR sky130_ef_sc_hd__decap_12
XFILLER_12_371 VPWR VGND VGND VPWR sky130_fd_sc_hd__decap_8
XFILLER_8_353 VGND VPWR VGND VPWR sky130_ef_sc_hd__decap_12
X_430_ _430_/A _430_/Y VPWR VGND VGND VPWR sky130_fd_sc_hd__inv_2
XFILLER_13_179 VPWR VGND VGND VPWR sky130_fd_sc_hd__decap_6
XFILLER_13_168 VGND VPWR VGND VPWR sky130_fd_sc_hd__decap_4
X_361_ _351_/A _361_/Y _360_/X dlycontrol2[4] VGND VPWR VGND VPWR sky130_fd_sc_hd__o21ai_2
X_292_ _451_/A _292_/Y VPWR VGND VGND VPWR sky130_fd_sc_hd__inv_2
XFILLER_3_47 VGND VPWR VGND VPWR sky130_fd_sc_hd__decap_4
Xedgedetect.dly200cell.genblk1\[33\].delay_unit VPWR edgedetect.dly200cell.genblk1\[33\].and1/X
+ edgedetect.dly200cell.genblk1\[33\].mux1/A0 VGND VGND VPWR sky130_mm_sc_hd_dlyPoly5ns
Xedgedetect.dly200cell.genblk1\[4\].delay_unit VPWR edgedetect.dly200cell.genblk1\[4\].and1/X
+ edgedetect.dly200cell.genblk1\[4\].mux1/A0 VGND VGND VPWR sky130_mm_sc_hd_dlyPoly5ns