*SPEF "ieee 1481-1999"
*DESIGN "adc_core_digital"
*DATE "11:11:11 Fri 11 11, 1111"
*VENDOR "OpenRCX"
*PROGRAM "Parallel Extraction"
*VERSION "1.0"
*DESIGN_FLOW "NAME_SCOPE LOCAL" "PIN_CAP NONE"
*DIVIDER /
*DELIMITER :
*BUS_DELIMITER []
*T_UNIT 1 NS
*C_UNIT 1 PF
*R_UNIT 1 OHM
*L_UNIT 1 HENRY

*NAME_MAP
*3 clk_dig_in
*4 comparator_in
*5 config_1_in[0]
*6 config_1_in[10]
*7 config_1_in[11]
*8 config_1_in[12]
*9 config_1_in[13]
*10 config_1_in[14]
*11 config_1_in[15]
*12 config_1_in[1]
*13 config_1_in[2]
*14 config_1_in[3]
*15 config_1_in[4]
*16 config_1_in[5]
*17 config_1_in[6]
*18 config_1_in[7]
*19 config_1_in[8]
*20 config_1_in[9]
*21 config_2_in[0]
*22 config_2_in[10]
*23 config_2_in[11]
*24 config_2_in[12]
*25 config_2_in[13]
*26 config_2_in[14]
*27 config_2_in[15]
*28 config_2_in[1]
*29 config_2_in[2]
*30 config_2_in[3]
*31 config_2_in[4]
*32 config_2_in[5]
*33 config_2_in[6]
*34 config_2_in[7]
*35 config_2_in[8]
*36 config_2_in[9]
*37 conv_finished_out
*38 enable_loop_out
*39 nmatrix_bincap_out_n[0]
*40 nmatrix_bincap_out_n[1]
*41 nmatrix_bincap_out_n[2]
*42 net191
*43 nmatrix_col_out_n[0]
*44 nmatrix_col_out_n[10]
*45 nmatrix_col_out_n[11]
*46 nmatrix_col_out_n[12]
*47 nmatrix_col_out_n[13]
*48 nmatrix_col_out_n[14]
*49 nmatrix_col_out_n[15]
*50 nmatrix_col_out_n[16]
*51 nmatrix_col_out_n[17]
*52 nmatrix_col_out_n[18]
*53 nmatrix_col_out_n[19]
*54 nmatrix_col_out_n[1]
*55 nmatrix_col_out_n[20]
*56 nmatrix_col_out_n[21]
*57 nmatrix_col_out_n[22]
*58 nmatrix_col_out_n[23]
*59 nmatrix_col_out_n[24]
*60 nmatrix_col_out_n[25]
*61 nmatrix_col_out_n[26]
*62 nmatrix_col_out_n[27]
*63 nmatrix_col_out_n[28]
*64 nmatrix_col_out_n[29]
*65 nmatrix_col_out_n[2]
*66 nmatrix_col_out_n[30]
*67 nmatrix_col_out_n[31]
*68 nmatrix_col_out_n[3]
*69 nmatrix_col_out_n[4]
*70 nmatrix_col_out_n[5]
*71 nmatrix_col_out_n[6]
*72 nmatrix_col_out_n[7]
*73 nmatrix_col_out_n[8]
*74 nmatrix_col_out_n[9]
*75 net192
*76 nmatrix_row_out_n[10]
*77 nmatrix_row_out_n[11]
*78 nmatrix_row_out_n[12]
*79 nmatrix_row_out_n[13]
*80 nmatrix_row_out_n[14]
*81 nmatrix_row_out_n[15]
*82 nmatrix_row_out_n[1]
*83 nmatrix_row_out_n[2]
*84 nmatrix_row_out_n[3]
*85 nmatrix_row_out_n[4]
*86 nmatrix_row_out_n[5]
*87 nmatrix_row_out_n[6]
*88 nmatrix_row_out_n[7]
*89 nmatrix_row_out_n[8]
*90 nmatrix_row_out_n[9]
*91 nmatrix_rowon_out_n[0]
*92 nmatrix_rowon_out_n[10]
*93 nmatrix_rowon_out_n[11]
*94 nmatrix_rowon_out_n[12]
*95 nmatrix_rowon_out_n[13]
*96 nmatrix_rowon_out_n[14]
*97 net194
*98 nmatrix_rowon_out_n[1]
*99 nmatrix_rowon_out_n[2]
*100 nmatrix_rowon_out_n[3]
*101 nmatrix_rowon_out_n[4]
*102 nmatrix_rowon_out_n[5]
*103 nmatrix_rowon_out_n[6]
*104 nmatrix_rowon_out_n[7]
*105 nmatrix_rowon_out_n[8]
*106 nmatrix_rowon_out_n[9]
*107 pmatrix_bincap_out_n[0]
*108 pmatrix_bincap_out_n[1]
*109 pmatrix_bincap_out_n[2]
*110 net195
*111 pmatrix_col_out_n[0]
*112 pmatrix_col_out_n[10]
*113 pmatrix_col_out_n[11]
*114 pmatrix_col_out_n[12]
*115 pmatrix_col_out_n[13]
*116 pmatrix_col_out_n[14]
*117 pmatrix_col_out_n[15]
*118 pmatrix_col_out_n[16]
*119 pmatrix_col_out_n[17]
*120 pmatrix_col_out_n[18]
*121 pmatrix_col_out_n[19]
*122 pmatrix_col_out_n[1]
*123 pmatrix_col_out_n[20]
*124 pmatrix_col_out_n[21]
*125 pmatrix_col_out_n[22]
*126 pmatrix_col_out_n[23]
*127 pmatrix_col_out_n[24]
*128 pmatrix_col_out_n[25]
*129 pmatrix_col_out_n[26]
*130 pmatrix_col_out_n[27]
*131 pmatrix_col_out_n[28]
*132 pmatrix_col_out_n[29]
*133 pmatrix_col_out_n[2]
*134 pmatrix_col_out_n[30]
*135 pmatrix_col_out_n[31]
*136 pmatrix_col_out_n[3]
*137 pmatrix_col_out_n[4]
*138 pmatrix_col_out_n[5]
*139 pmatrix_col_out_n[6]
*140 pmatrix_col_out_n[7]
*141 pmatrix_col_out_n[8]
*142 pmatrix_col_out_n[9]
*143 net193
*144 pmatrix_row_out_n[10]
*145 pmatrix_row_out_n[11]
*146 pmatrix_row_out_n[12]
*147 pmatrix_row_out_n[13]
*148 pmatrix_row_out_n[14]
*149 pmatrix_row_out_n[15]
*150 pmatrix_row_out_n[1]
*151 pmatrix_row_out_n[2]
*152 pmatrix_row_out_n[3]
*153 pmatrix_row_out_n[4]
*154 pmatrix_row_out_n[5]
*155 pmatrix_row_out_n[6]
*156 pmatrix_row_out_n[7]
*157 pmatrix_row_out_n[8]
*158 pmatrix_row_out_n[9]
*159 pmatrix_rowon_out_n[0]
*160 pmatrix_rowon_out_n[10]
*161 pmatrix_rowon_out_n[11]
*162 pmatrix_rowon_out_n[12]
*163 pmatrix_rowon_out_n[13]
*164 pmatrix_rowon_out_n[14]
*165 net196
*166 pmatrix_rowon_out_n[1]
*167 pmatrix_rowon_out_n[2]
*168 pmatrix_rowon_out_n[3]
*169 pmatrix_rowon_out_n[4]
*170 pmatrix_rowon_out_n[5]
*171 pmatrix_rowon_out_n[6]
*172 pmatrix_rowon_out_n[7]
*173 pmatrix_rowon_out_n[8]
*174 pmatrix_rowon_out_n[9]
*175 result_out[0]
*176 result_out[10]
*177 result_out[11]
*178 result_out[12]
*179 result_out[13]
*180 result_out[14]
*181 result_out[15]
*182 result_out[1]
*183 result_out[2]
*184 result_out[3]
*185 result_out[4]
*186 result_out[5]
*187 result_out[6]
*188 result_out[7]
*189 result_out[8]
*190 result_out[9]
*191 rst_n
*192 sample_matrix_out
*193 sample_matrix_out_n
*194 sample_switch_out
*195 sample_switch_out_n
*198 _0000_
*199 _0001_
*200 _0002_
*201 _0003_
*202 _0004_
*203 _0005_
*204 _0006_
*205 _0007_
*206 _0008_
*207 _0009_
*208 _0010_
*209 _0011_
*210 _0012_
*211 _0013_
*212 _0014_
*213 _0015_
*214 _0016_
*215 _0017_
*216 _0018_
*217 _0019_
*218 _0020_
*219 _0021_
*220 _0022_
*221 _0023_
*222 _0024_
*223 _0025_
*224 _0026_
*225 _0027_
*226 _0028_
*227 _0029_
*228 _0030_
*229 _0031_
*230 _0032_
*231 _0033_
*232 _0034_
*233 _0035_
*234 _0036_
*235 _0037_
*236 _0038_
*237 _0039_
*238 _0040_
*239 _0041_
*240 _0042_
*241 _0043_
*242 _0044_
*243 _0045_
*244 _0046_
*245 _0047_
*246 _0048_
*247 _0049_
*248 _0050_
*249 _0051_
*250 _0052_
*251 _0053_
*252 _0054_
*253 _0055_
*254 _0056_
*255 _0057_
*256 _0058_
*257 _0059_
*258 _0060_
*259 _0061_
*260 _0062_
*261 _0063_
*262 _0064_
*263 _0065_
*264 _0066_
*265 _0067_
*266 _0068_
*267 _0069_
*268 _0070_
*269 _0071_
*270 _0072_
*271 _0073_
*272 _0074_
*273 _0075_
*274 _0076_
*275 _0077_
*276 _0078_
*277 _0079_
*278 _0080_
*279 _0081_
*280 _0082_
*281 _0083_
*282 _0084_
*283 _0085_
*284 _0086_
*285 _0087_
*286 _0088_
*287 _0089_
*288 _0090_
*289 _0091_
*290 _0092_
*291 _0093_
*292 _0094_
*293 _0095_
*294 _0096_
*295 _0097_
*296 _0098_
*297 _0099_
*298 _0100_
*299 _0101_
*300 _0102_
*301 _0103_
*302 _0104_
*303 _0105_
*304 _0106_
*305 _0107_
*306 _0108_
*307 _0109_
*308 _0110_
*309 _0111_
*310 _0112_
*311 _0113_
*312 _0114_
*313 _0115_
*314 _0116_
*315 _0117_
*316 _0118_
*317 _0119_
*318 _0120_
*319 _0121_
*320 _0122_
*321 _0123_
*322 _0124_
*323 _0125_
*324 _0126_
*325 _0127_
*326 _0128_
*327 _0129_
*328 _0130_
*329 _0131_
*330 _0132_
*331 _0133_
*332 _0134_
*333 _0135_
*334 _0136_
*335 _0137_
*336 _0138_
*337 _0139_
*338 _0140_
*339 _0141_
*340 _0142_
*341 _0143_
*342 _0144_
*343 _0145_
*344 _0146_
*345 _0147_
*346 _0148_
*347 _0149_
*348 _0150_
*349 _0151_
*350 _0152_
*351 _0153_
*352 _0154_
*353 _0155_
*354 _0156_
*355 _0157_
*356 _0158_
*357 _0159_
*358 _0160_
*359 _0161_
*360 _0162_
*361 _0163_
*362 _0164_
*363 _0165_
*364 _0166_
*365 _0167_
*366 _0168_
*367 _0169_
*368 _0170_
*369 _0171_
*370 _0172_
*371 _0173_
*372 _0174_
*373 _0175_
*374 _0176_
*375 _0177_
*376 _0178_
*377 _0179_
*378 _0180_
*379 _0181_
*380 _0182_
*381 _0183_
*382 _0184_
*383 _0185_
*384 _0186_
*385 _0187_
*386 _0188_
*387 _0189_
*388 _0190_
*389 _0191_
*390 _0192_
*391 _0193_
*392 _0194_
*393 _0195_
*394 _0196_
*395 _0197_
*396 _0198_
*397 _0199_
*398 _0200_
*399 _0201_
*400 _0202_
*401 _0203_
*402 _0204_
*403 _0205_
*404 _0206_
*405 _0207_
*406 _0208_
*407 _0209_
*408 _0210_
*409 _0211_
*410 _0212_
*411 _0213_
*412 _0214_
*413 _0215_
*414 _0216_
*415 _0217_
*416 _0218_
*417 _0219_
*418 _0220_
*419 _0221_
*420 _0222_
*421 _0223_
*422 _0224_
*423 _0225_
*424 _0226_
*425 _0227_
*426 _0228_
*427 _0229_
*428 _0230_
*429 _0231_
*430 _0232_
*431 _0233_
*432 _0234_
*433 _0235_
*434 _0236_
*435 _0237_
*436 _0238_
*437 _0239_
*438 _0240_
*439 _0241_
*440 _0242_
*441 _0243_
*442 _0244_
*443 _0245_
*444 _0246_
*445 _0247_
*446 _0248_
*447 _0249_
*448 _0250_
*449 _0251_
*450 _0252_
*451 _0253_
*452 _0254_
*453 _0255_
*454 _0256_
*455 _0257_
*456 _0258_
*457 _0259_
*458 _0260_
*459 _0261_
*460 _0262_
*461 _0263_
*462 _0264_
*463 _0265_
*464 _0266_
*465 _0267_
*466 _0268_
*467 _0269_
*468 _0270_
*469 _0271_
*470 _0272_
*471 _0273_
*472 _0274_
*473 _0275_
*474 _0276_
*475 _0277_
*476 _0278_
*477 _0279_
*478 _0280_
*479 _0281_
*480 _0282_
*481 _0283_
*482 _0284_
*483 _0285_
*484 _0286_
*485 _0287_
*486 _0288_
*487 _0289_
*488 _0290_
*489 _0291_
*490 _0292_
*491 _0293_
*492 _0294_
*493 _0295_
*494 _0296_
*495 _0297_
*496 _0298_
*497 _0299_
*498 _0300_
*499 _0301_
*500 _0302_
*501 _0303_
*502 _0304_
*503 _0305_
*504 _0306_
*505 _0307_
*506 _0308_
*507 _0309_
*508 _0310_
*509 _0311_
*510 _0312_
*511 _0313_
*512 _0314_
*513 _0315_
*514 _0316_
*515 _0317_
*516 _0318_
*517 _0319_
*518 _0320_
*519 _0321_
*520 _0322_
*521 _0323_
*522 _0324_
*523 _0325_
*524 _0326_
*525 _0327_
*526 _0328_
*527 _0329_
*528 _0330_
*529 _0331_
*530 _0332_
*531 _0333_
*532 _0334_
*533 _0335_
*534 _0336_
*535 _0337_
*536 _0338_
*537 _0339_
*538 _0340_
*539 _0341_
*540 _0342_
*541 _0343_
*542 _0344_
*543 _0345_
*544 _0346_
*545 _0347_
*546 _0348_
*547 _0349_
*548 _0350_
*549 _0351_
*550 _0352_
*551 _0353_
*552 _0354_
*553 _0355_
*554 _0356_
*555 _0357_
*556 _0358_
*557 _0359_
*558 _0360_
*559 _0361_
*560 _0362_
*561 _0363_
*562 _0364_
*563 _0365_
*564 _0366_
*565 _0367_
*566 _0368_
*567 _0369_
*568 _0370_
*569 _0371_
*570 _0372_
*571 _0373_
*572 _0374_
*573 _0375_
*574 _0376_
*575 _0377_
*576 _0378_
*577 _0379_
*578 _0380_
*579 _0381_
*580 _0382_
*581 _0383_
*582 _0384_
*583 _0385_
*584 _0386_
*585 _0387_
*586 _0388_
*587 _0389_
*588 _0390_
*589 _0391_
*590 _0392_
*591 _0393_
*592 _0394_
*593 _0395_
*594 _0396_
*595 _0397_
*596 _0398_
*597 _0399_
*598 _0400_
*599 _0401_
*600 _0402_
*601 _0403_
*602 _0404_
*603 _0405_
*604 _0406_
*605 _0407_
*606 _0408_
*607 _0409_
*608 _0410_
*609 _0411_
*610 _0412_
*611 _0413_
*612 _0414_
*613 _0415_
*614 _0416_
*615 _0417_
*616 _0418_
*617 _0419_
*618 _0420_
*619 _0421_
*620 _0422_
*621 _0423_
*622 _0424_
*623 _0425_
*624 _0426_
*625 _0427_
*626 _0428_
*627 _0429_
*628 _0430_
*629 _0431_
*630 _0432_
*631 _0433_
*632 _0434_
*633 _0435_
*634 _0436_
*635 _0437_
*636 _0438_
*637 _0439_
*638 _0440_
*639 _0441_
*640 _0442_
*641 _0443_
*642 _0444_
*643 _0445_
*644 _0446_
*645 _0447_
*646 _0448_
*647 _0449_
*648 _0450_
*649 _0451_
*650 _0452_
*651 _0453_
*652 _0454_
*653 _0455_
*654 _0456_
*655 _0457_
*656 _0458_
*657 _0459_
*658 _0460_
*659 _0461_
*660 _0462_
*661 _0463_
*662 _0464_
*663 _0465_
*664 _0466_
*665 _0467_
*666 _0468_
*667 _0469_
*668 _0470_
*669 _0471_
*670 _0472_
*671 _0473_
*672 _0474_
*673 _0475_
*674 _0476_
*675 _0477_
*676 _0478_
*677 _0479_
*678 _0480_
*679 _0481_
*680 _0482_
*681 _0483_
*682 _0484_
*683 _0485_
*684 _0486_
*685 _0487_
*686 _0488_
*687 _0489_
*688 _0490_
*689 _0491_
*690 _0492_
*691 _0493_
*692 _0494_
*693 _0495_
*694 _0496_
*695 _0497_
*696 _0498_
*697 _0499_
*698 _0500_
*699 _0501_
*700 _0502_
*701 _0503_
*702 _0504_
*703 _0505_
*704 _0506_
*705 _0507_
*706 _0508_
*707 _0509_
*708 _0510_
*709 _0511_
*710 _0512_
*711 _0513_
*712 _0514_
*713 _0515_
*714 _0516_
*715 _0517_
*716 _0518_
*717 _0519_
*718 _0520_
*719 _0521_
*720 _0522_
*721 _0523_
*722 _0524_
*723 _0525_
*724 _0526_
*725 _0527_
*726 _0528_
*727 _0529_
*728 _0530_
*729 _0531_
*730 _0532_
*731 _0533_
*732 _0534_
*733 _0535_
*734 _0536_
*735 _0537_
*736 _0538_
*737 _0539_
*738 _0540_
*739 _0541_
*740 _0542_
*741 _0543_
*742 _0544_
*743 _0545_
*744 _0546_
*745 _0547_
*746 _0548_
*747 _0549_
*748 _0550_
*749 _0551_
*750 _0552_
*751 _0553_
*752 _0554_
*753 _0555_
*754 _0556_
*755 _0557_
*756 _0558_
*757 _0559_
*758 _0560_
*759 _0561_
*760 _0562_
*761 _0563_
*762 _0564_
*763 _0565_
*764 _0566_
*765 _0567_
*766 _0568_
*767 _0569_
*768 _0570_
*769 _0571_
*770 _0572_
*771 _0573_
*772 _0574_
*773 _0575_
*774 _0576_
*775 _0577_
*776 _0578_
*777 _0579_
*778 _0580_
*779 _0581_
*780 _0582_
*781 _0583_
*782 _0584_
*783 _0585_
*784 _0586_
*785 _0587_
*786 _0588_
*787 _0589_
*788 _0590_
*789 _0591_
*790 _0592_
*791 _0593_
*792 _0594_
*793 _0595_
*794 _0596_
*795 _0597_
*796 _0598_
*797 _0599_
*798 _0600_
*799 _0601_
*800 _0602_
*801 _0603_
*802 _0604_
*803 _0605_
*804 _0606_
*805 _0607_
*806 _0608_
*807 _0609_
*808 _0610_
*809 _0611_
*810 _0612_
*811 _0613_
*812 _0614_
*813 _0615_
*814 _0616_
*815 _0617_
*816 _0618_
*817 _0619_
*818 _0620_
*819 _0621_
*820 _0622_
*821 _0623_
*822 _0624_
*823 _0625_
*824 _0626_
*825 _0627_
*826 _0628_
*827 _0629_
*828 _0630_
*829 _0631_
*830 _0632_
*831 _0633_
*832 _0634_
*833 _0635_
*834 _0636_
*835 _0637_
*836 _0638_
*837 _0639_
*838 _0640_
*839 _0641_
*840 _0642_
*841 _0643_
*842 _0644_
*843 _0645_
*844 _0646_
*845 _0647_
*846 _0648_
*847 _0649_
*848 _0650_
*849 _0651_
*850 _0652_
*851 _0653_
*852 _0654_
*853 _0655_
*854 _0656_
*855 _0657_
*856 _0658_
*857 _0659_
*858 _0660_
*859 _0661_
*860 _0662_
*861 _0663_
*862 _0664_
*863 _0665_
*864 _0666_
*865 _0667_
*866 _0668_
*867 _0669_
*868 _0670_
*869 _0671_
*870 _0672_
*871 _0673_
*872 _0674_
*873 _0675_
*874 _0676_
*875 _0677_
*876 _0678_
*877 _0679_
*878 _0680_
*879 _0681_
*880 _0682_
*881 _0683_
*882 _0684_
*883 _0685_
*884 _0686_
*885 _0687_
*886 _0688_
*887 _0689_
*888 _0690_
*889 _0691_
*890 _0692_
*891 _0693_
*892 _0694_
*893 _0695_
*894 _0696_
*895 _0697_
*896 _0698_
*897 _0699_
*898 _0700_
*899 _0701_
*900 _0702_
*901 _0703_
*902 _0704_
*903 _0705_
*904 _0706_
*905 _0707_
*906 _0708_
*907 _0709_
*908 _0710_
*909 _0711_
*910 _0712_
*911 _0713_
*912 _0714_
*913 _0715_
*914 _0716_
*915 _0717_
*916 _0718_
*917 _0719_
*918 _0720_
*919 _0721_
*920 _0722_
*921 _0723_
*922 _0724_
*923 _0725_
*924 _0726_
*925 _0727_
*926 _0728_
*927 _0729_
*928 _0730_
*929 _0731_
*930 _0732_
*931 _0733_
*932 _0734_
*933 _0735_
*934 _0736_
*935 _0737_
*936 _0738_
*937 _0739_
*938 _0740_
*939 _0741_
*940 _0742_
*941 _0743_
*942 _0744_
*943 _0745_
*944 _0746_
*945 _0747_
*946 _0748_
*947 _0749_
*948 _0750_
*949 _0751_
*950 _0752_
*951 _0753_
*952 _0754_
*953 _0755_
*954 cnb\.average_counter_r\[0\]
*955 cnb\.average_counter_r\[1\]
*956 cnb\.average_counter_r\[2\]
*957 cnb\.average_counter_r\[3\]
*958 cnb\.average_counter_r\[4\]
*959 cnb\.average_sum_r\[0\]
*960 cnb\.average_sum_r\[1\]
*961 cnb\.average_sum_r\[2\]
*962 cnb\.average_sum_r\[3\]
*963 cnb\.average_sum_r\[4\]
*964 cnb\.conv_finished_r
*965 cnb\.data_register_r\[0\]
*966 cnb\.data_register_r\[10\]
*967 cnb\.data_register_r\[11\]
*968 cnb\.data_register_r\[1\]
*969 cnb\.data_register_r\[2\]
*970 cnb\.data_register_r\[3\]
*971 cnb\.data_register_r\[4\]
*972 cnb\.data_register_r\[5\]
*973 cnb\.data_register_r\[6\]
*974 cnb\.data_register_r\[7\]
*975 cnb\.data_register_r\[8\]
*976 cnb\.data_register_r\[9\]
*977 cnb\.next_average_counter_w\[0\]
*978 cnb\.next_average_counter_w\[1\]
*979 cnb\.next_average_counter_w\[2\]
*980 cnb\.next_average_counter_w\[3\]
*981 cnb\.next_average_counter_w\[4\]
*982 cnb\.next_average_sum_w\[0\]
*983 cnb\.next_average_sum_w\[1\]
*984 cnb\.next_average_sum_w\[2\]
*985 cnb\.next_average_sum_w\[3\]
*986 cnb\.next_average_sum_w\[4\]
*987 cnb\.next_conv_finished_w
*988 cnb\.next_data_register_w\[0\]
*989 cnb\.next_data_register_w\[10\]
*990 cnb\.next_data_register_w\[11\]
*991 cnb\.next_data_register_w\[1\]
*992 cnb\.next_data_register_w\[2\]
*993 cnb\.next_data_register_w\[3\]
*994 cnb\.next_data_register_w\[4\]
*995 cnb\.next_data_register_w\[5\]
*996 cnb\.next_data_register_w\[6\]
*997 cnb\.next_data_register_w\[7\]
*998 cnb\.next_data_register_w\[8\]
*999 cnb\.next_data_register_w\[9\]
*1000 cnb\.result_out\[0\]
*1001 cnb\.result_out\[10\]
*1002 cnb\.result_out\[11\]
*1003 cnb\.result_out\[1\]
*1004 cnb\.result_out\[2\]
*1005 cnb\.result_out\[3\]
*1006 cnb\.result_out\[4\]
*1007 cnb\.result_out\[5\]
*1008 cnb\.result_out\[6\]
*1009 cnb\.result_out\[7\]
*1010 cnb\.result_out\[8\]
*1011 cnb\.result_out\[9\]
*1012 cnb\.sampled_avg_control_r\[0\]
*1013 cnb\.sampled_avg_control_r\[1\]
*1014 cnb\.sampled_avg_control_r\[2\]
*1015 cnb\.shift_register_r\[10\]
*1016 cnb\.shift_register_r\[11\]
*1017 cnb\.shift_register_r\[12\]
*1018 cnb\.shift_register_r\[13\]
*1019 cnb\.shift_register_r\[14\]
*1020 cnb\.shift_register_r\[15\]
*1021 cnb\.shift_register_r\[16\]
*1022 cnb\.shift_register_r\[1\]
*1023 cnb\.shift_register_r\[2\]
*1024 cnb\.shift_register_r\[3\]
*1025 cnb\.shift_register_r\[4\]
*1026 cnb\.shift_register_r\[5\]
*1027 cnb\.shift_register_r\[6\]
*1028 cnb\.shift_register_r\[7\]
*1029 cnb\.shift_register_r\[8\]
*1030 cnb\.shift_register_r\[9\]
*1031 net1
*1032 net10
*1033 net100
*1034 net101
*1035 net102
*1036 net103
*1037 net104
*1038 net105
*1039 net106
*1040 net107
*1041 net108
*1042 net109
*1043 net11
*1044 net110
*1045 net111
*1046 net112
*1047 net113
*1048 net114
*1049 net115
*1050 net116
*1051 net117
*1052 net118
*1053 net119
*1054 net12
*1055 net120
*1056 net121
*1057 net122
*1058 net123
*1059 net124
*1060 net125
*1061 net126
*1062 net127
*1063 net128
*1064 net129
*1065 net13
*1066 net130
*1067 net131
*1068 net132
*1069 net133
*1070 net134
*1071 net135
*1072 net136
*1073 net137
*1074 net138
*1075 net139
*1076 net14
*1077 net140
*1078 net141
*1079 net142
*1080 net143
*1081 net144
*1082 net145
*1083 net146
*1084 net147
*1085 net148
*1086 net149
*1087 net15
*1088 net150
*1089 net151
*1090 net152
*1091 net153
*1092 net154
*1093 net155
*1094 net156
*1095 net157
*1096 net158
*1097 net159
*1098 net16
*1099 net160
*1100 net161
*1101 net162
*1102 net163
*1103 net164
*1104 net165
*1105 net166
*1106 net167
*1107 net168
*1108 net169
*1109 net17
*1110 net170
*1111 net171
*1112 net172
*1113 net173
*1114 net174
*1115 net175
*1116 net176
*1117 net177
*1118 net178
*1119 net179
*1120 net18
*1121 net180
*1122 net181
*1123 net182
*1124 net183
*1125 net184
*1126 net185
*1127 net186
*1128 net187
*1129 net188
*1130 net189
*1131 net19
*1132 net190
*1133 net2
*1134 net20
*1135 net21
*1136 net22
*1137 net23
*1138 net24
*1139 net25
*1140 net26
*1141 net27
*1142 net28
*1143 net29
*1144 net3
*1145 net30
*1146 net31
*1147 net32
*1148 net33
*1149 net34
*1150 net35
*1151 net36
*1152 net37
*1153 net38
*1154 net39
*1155 net4
*1156 net40
*1157 net41
*1158 net42
*1159 net43
*1160 net44
*1161 net45
*1162 net46
*1163 net47
*1164 net48
*1165 net49
*1166 net5
*1167 net50
*1168 net51
*1169 net52
*1170 net53
*1171 net54
*1172 net55
*1173 net56
*1174 net57
*1175 net58
*1176 net59
*1177 net6
*1178 net60
*1179 net61
*1180 net62
*1181 net63
*1182 net64
*1183 net65
*1184 net66
*1185 net67
*1186 net68
*1187 net69
*1188 net7
*1189 net70
*1190 net71
*1191 net72
*1192 net73
*1193 net74
*1194 net75
*1195 net76
*1196 net77
*1197 net78
*1198 net79
*1199 net8
*1200 net80
*1201 net81
*1202 net82
*1203 net83
*1204 net84
*1205 net85
*1206 net86
*1207 net87
*1208 net88
*1209 net89
*1210 net9
*1211 net90
*1212 net91
*1213 net92
*1214 net93
*1215 net94
*1216 net95
*1217 net96
*1218 net97
*1219 net98
*1220 net99
*1221 osr\.data_valid_r
*1222 osr\.is_last_sample
*1223 osr\.next_result_w\[0\]
*1224 osr\.next_result_w\[10\]
*1225 osr\.next_result_w\[11\]
*1226 osr\.next_result_w\[12\]
*1227 osr\.next_result_w\[13\]
*1228 osr\.next_result_w\[14\]
*1229 osr\.next_result_w\[15\]
*1230 osr\.next_result_w\[16\]
*1231 osr\.next_result_w\[17\]
*1232 osr\.next_result_w\[18\]
*1233 osr\.next_result_w\[19\]
*1234 osr\.next_result_w\[1\]
*1235 osr\.next_result_w\[2\]
*1236 osr\.next_result_w\[3\]
*1237 osr\.next_result_w\[4\]
*1238 osr\.next_result_w\[5\]
*1239 osr\.next_result_w\[6\]
*1240 osr\.next_result_w\[7\]
*1241 osr\.next_result_w\[8\]
*1242 osr\.next_result_w\[9\]
*1243 osr\.next_sample_count_w\[0\]
*1244 osr\.next_sample_count_w\[1\]
*1245 osr\.next_sample_count_w\[2\]
*1246 osr\.next_sample_count_w\[3\]
*1247 osr\.next_sample_count_w\[4\]
*1248 osr\.next_sample_count_w\[5\]
*1249 osr\.next_sample_count_w\[6\]
*1250 osr\.next_sample_count_w\[7\]
*1251 osr\.next_sample_count_w\[8\]
*1252 osr\.osr_mode_r\[0\]
*1253 osr\.osr_mode_r\[1\]
*1254 osr\.osr_mode_r\[2\]
*1255 osr\.result_r\[0\]
*1256 osr\.result_r\[10\]
*1257 osr\.result_r\[11\]
*1258 osr\.result_r\[12\]
*1259 osr\.result_r\[13\]
*1260 osr\.result_r\[14\]
*1261 osr\.result_r\[15\]
*1262 osr\.result_r\[16\]
*1263 osr\.result_r\[17\]
*1264 osr\.result_r\[18\]
*1265 osr\.result_r\[19\]
*1266 osr\.result_r\[1\]
*1267 osr\.result_r\[2\]
*1268 osr\.result_r\[3\]
*1269 osr\.result_r\[4\]
*1270 osr\.result_r\[5\]
*1271 osr\.result_r\[6\]
*1272 osr\.result_r\[7\]
*1273 osr\.result_r\[8\]
*1274 osr\.result_r\[9\]
*1275 osr\.sample_count_r\[0\]
*1276 osr\.sample_count_r\[1\]
*1277 osr\.sample_count_r\[2\]
*1278 osr\.sample_count_r\[3\]
*1279 osr\.sample_count_r\[4\]
*1280 osr\.sample_count_r\[5\]
*1281 osr\.sample_count_r\[6\]
*1282 osr\.sample_count_r\[7\]
*1283 osr\.sample_count_r\[8\]
*1284 ANTENNA_1
*1285 ANTENNA_2
*1286 ANTENNA_3
*1287 ANTENNA_4
*1288 FILLER_0_103
*1289 FILLER_0_11
*1290 FILLER_0_111
*1291 FILLER_0_113
*1292 FILLER_0_123
*1293 FILLER_0_131
*1294 FILLER_0_139
*1295 FILLER_0_141
*1296 FILLER_0_145
*1297 FILLER_0_160
*1298 FILLER_0_167
*1299 FILLER_0_169
*1300 FILLER_0_177
*1301 FILLER_0_185
*1302 FILLER_0_19
*1303 FILLER_0_191
*1304 FILLER_0_195
*1305 FILLER_0_197
*1306 FILLER_0_204
*1307 FILLER_0_212
*1308 FILLER_0_220
*1309 FILLER_0_225
*1310 FILLER_0_233
*1311 FILLER_0_241
*1312 FILLER_0_249
*1313 FILLER_0_253
*1314 FILLER_0_260
*1315 FILLER_0_268
*1316 FILLER_0_27
*1317 FILLER_0_276
*1318 FILLER_0_281
*1319 FILLER_0_285
*1320 FILLER_0_288
*1321 FILLER_0_29
*1322 FILLER_0_296
*1323 FILLER_0_3
*1324 FILLER_0_304
*1325 FILLER_0_309
*1326 FILLER_0_316
*1327 FILLER_0_39
*1328 FILLER_0_47
*1329 FILLER_0_55
*1330 FILLER_0_57
*1331 FILLER_0_64
*1332 FILLER_0_79
*1333 FILLER_0_83
*1334 FILLER_0_85
*1335 FILLER_0_95
*1336 FILLER_10_100
*1337 FILLER_10_125
*1338 FILLER_10_135
*1339 FILLER_10_139
*1340 FILLER_10_141
*1341 FILLER_10_145
*1342 FILLER_10_156
*1343 FILLER_10_181
*1344 FILLER_10_188
*1345 FILLER_10_197
*1346 FILLER_10_201
*1347 FILLER_10_213
*1348 FILLER_10_225
*1349 FILLER_10_237
*1350 FILLER_10_249
*1351 FILLER_10_253
*1352 FILLER_10_265
*1353 FILLER_10_27
*1354 FILLER_10_277
*1355 FILLER_10_289
*1356 FILLER_10_29
*1357 FILLER_10_3
*1358 FILLER_10_301
*1359 FILLER_10_307
*1360 FILLER_10_309
*1361 FILLER_10_317
*1362 FILLER_10_40
*1363 FILLER_10_65
*1364 FILLER_10_83
*1365 FILLER_10_85
*1366 FILLER_10_94
*1367 FILLER_11_10
*1368 FILLER_11_109
*1369 FILLER_11_113
*1370 FILLER_11_121
*1371 FILLER_11_130
*1372 FILLER_11_140
*1373 FILLER_11_147
*1374 FILLER_11_158
*1375 FILLER_11_167
*1376 FILLER_11_169
*1377 FILLER_11_193
*1378 FILLER_11_218
*1379 FILLER_11_225
*1380 FILLER_11_237
*1381 FILLER_11_249
*1382 FILLER_11_261
*1383 FILLER_11_273
*1384 FILLER_11_279
*1385 FILLER_11_281
*1386 FILLER_11_293
*1387 FILLER_11_3
*1388 FILLER_11_305
*1389 FILLER_11_317
*1390 FILLER_11_34
*1391 FILLER_11_49
*1392 FILLER_11_55
*1393 FILLER_11_57
*1394 FILLER_11_65
*1395 FILLER_11_76
*1396 FILLER_11_87
*1397 FILLER_11_98
*1398 FILLER_12_10
*1399 FILLER_12_100
*1400 FILLER_12_106
*1401 FILLER_12_113
*1402 FILLER_12_121
*1403 FILLER_12_129
*1404 FILLER_12_139
*1405 FILLER_12_141
*1406 FILLER_12_152
*1407 FILLER_12_163
*1408 FILLER_12_172
*1409 FILLER_12_179
*1410 FILLER_12_19
*1411 FILLER_12_195
*1412 FILLER_12_197
*1413 FILLER_12_211
*1414 FILLER_12_218
*1415 FILLER_12_230
*1416 FILLER_12_242
*1417 FILLER_12_250
*1418 FILLER_12_253
*1419 FILLER_12_265
*1420 FILLER_12_27
*1421 FILLER_12_277
*1422 FILLER_12_289
*1423 FILLER_12_29
*1424 FILLER_12_3
*1425 FILLER_12_301
*1426 FILLER_12_307
*1427 FILLER_12_309
*1428 FILLER_12_317
*1429 FILLER_12_39
*1430 FILLER_12_49
*1431 FILLER_12_60
*1432 FILLER_12_78
*1433 FILLER_12_85
*1434 FILLER_13_101
*1435 FILLER_13_111
*1436 FILLER_13_113
*1437 FILLER_13_119
*1438 FILLER_13_131
*1439 FILLER_13_144
*1440 FILLER_13_16
*1441 FILLER_13_160
*1442 FILLER_13_167
*1443 FILLER_13_169
*1444 FILLER_13_178
*1445 FILLER_13_188
*1446 FILLER_13_195
*1447 FILLER_13_214
*1448 FILLER_13_221
*1449 FILLER_13_225
*1450 FILLER_13_237
*1451 FILLER_13_24
*1452 FILLER_13_249
*1453 FILLER_13_261
*1454 FILLER_13_273
*1455 FILLER_13_279
*1456 FILLER_13_281
*1457 FILLER_13_287
*1458 FILLER_13_296
*1459 FILLER_13_3
*1460 FILLER_13_309
*1461 FILLER_13_317
*1462 FILLER_13_35
*1463 FILLER_13_39
*1464 FILLER_13_47
*1465 FILLER_13_55
*1466 FILLER_13_57
*1467 FILLER_13_68
*1468 FILLER_13_79
*1469 FILLER_13_89
*1470 FILLER_13_9
*1471 FILLER_14_101
*1472 FILLER_14_109
*1473 FILLER_14_117
*1474 FILLER_14_128
*1475 FILLER_14_132
*1476 FILLER_14_139
*1477 FILLER_14_141
*1478 FILLER_14_145
*1479 FILLER_14_152
*1480 FILLER_14_161
*1481 FILLER_14_170
*1482 FILLER_14_195
*1483 FILLER_14_197
*1484 FILLER_14_219
*1485 FILLER_14_226
*1486 FILLER_14_232
*1487 FILLER_14_239
*1488 FILLER_14_248
*1489 FILLER_14_253
*1490 FILLER_14_264
*1491 FILLER_14_27
*1492 FILLER_14_281
*1493 FILLER_14_288
*1494 FILLER_14_29
*1495 FILLER_14_295
*1496 FILLER_14_3
*1497 FILLER_14_307
*1498 FILLER_14_309
*1499 FILLER_14_317
*1500 FILLER_14_37
*1501 FILLER_14_42
*1502 FILLER_14_53
*1503 FILLER_14_57
*1504 FILLER_14_67
*1505 FILLER_14_73
*1506 FILLER_14_83
*1507 FILLER_14_85
*1508 FILLER_14_91
*1509 FILLER_15_10
*1510 FILLER_15_107
*1511 FILLER_15_111
*1512 FILLER_15_113
*1513 FILLER_15_119
*1514 FILLER_15_130
*1515 FILLER_15_146
*1516 FILLER_15_153
*1517 FILLER_15_162
*1518 FILLER_15_169
*1519 FILLER_15_173
*1520 FILLER_15_181
*1521 FILLER_15_189
*1522 FILLER_15_196
*1523 FILLER_15_223
*1524 FILLER_15_225
*1525 FILLER_15_231
*1526 FILLER_15_237
*1527 FILLER_15_244
*1528 FILLER_15_252
*1529 FILLER_15_262
*1530 FILLER_15_271
*1531 FILLER_15_278
*1532 FILLER_15_281
*1533 FILLER_15_290
*1534 FILLER_15_294
*1535 FILLER_15_3
*1536 FILLER_15_301
*1537 FILLER_15_309
*1538 FILLER_15_317
*1539 FILLER_15_35
*1540 FILLER_15_40
*1541 FILLER_15_52
*1542 FILLER_15_57
*1543 FILLER_15_68
*1544 FILLER_15_74
*1545 FILLER_15_84
*1546 FILLER_15_96
*1547 FILLER_16_105
*1548 FILLER_16_116
*1549 FILLER_16_12
*1550 FILLER_16_139
*1551 FILLER_16_141
*1552 FILLER_16_163
*1553 FILLER_16_169
*1554 FILLER_16_178
*1555 FILLER_16_186
*1556 FILLER_16_19
*1557 FILLER_16_195
*1558 FILLER_16_197
*1559 FILLER_16_205
*1560 FILLER_16_228
*1561 FILLER_16_236
*1562 FILLER_16_247
*1563 FILLER_16_251
*1564 FILLER_16_253
*1565 FILLER_16_267
*1566 FILLER_16_27
*1567 FILLER_16_277
*1568 FILLER_16_29
*1569 FILLER_16_290
*1570 FILLER_16_299
*1571 FILLER_16_3
*1572 FILLER_16_307
*1573 FILLER_16_309
*1574 FILLER_16_317
*1575 FILLER_16_39
*1576 FILLER_16_47
*1577 FILLER_16_56
*1578 FILLER_16_67
*1579 FILLER_16_80
*1580 FILLER_16_85
*1581 FILLER_16_95
*1582 FILLER_17_10
*1583 FILLER_17_105
*1584 FILLER_17_111
*1585 FILLER_17_113
*1586 FILLER_17_128
*1587 FILLER_17_137
*1588 FILLER_17_146
*1589 FILLER_17_154
*1590 FILLER_17_164
*1591 FILLER_17_169
*1592 FILLER_17_176
*1593 FILLER_17_201
*1594 FILLER_17_212
*1595 FILLER_17_219
*1596 FILLER_17_223
*1597 FILLER_17_225
*1598 FILLER_17_232
*1599 FILLER_17_248
*1600 FILLER_17_257
*1601 FILLER_17_273
*1602 FILLER_17_279
*1603 FILLER_17_281
*1604 FILLER_17_289
*1605 FILLER_17_293
*1606 FILLER_17_3
*1607 FILLER_17_301
*1608 FILLER_17_310
*1609 FILLER_17_317
*1610 FILLER_17_34
*1611 FILLER_17_45
*1612 FILLER_17_53
*1613 FILLER_17_57
*1614 FILLER_17_79
*1615 FILLER_17_95
*1616 FILLER_18_108
*1617 FILLER_18_12
*1618 FILLER_18_124
*1619 FILLER_18_133
*1620 FILLER_18_139
*1621 FILLER_18_141
*1622 FILLER_18_149
*1623 FILLER_18_172
*1624 FILLER_18_177
*1625 FILLER_18_186
*1626 FILLER_18_195
*1627 FILLER_18_197
*1628 FILLER_18_20
*1629 FILLER_18_225
*1630 FILLER_18_231
*1631 FILLER_18_245
*1632 FILLER_18_251
*1633 FILLER_18_253
*1634 FILLER_18_262
*1635 FILLER_18_27
*1636 FILLER_18_271
*1637 FILLER_18_279
*1638 FILLER_18_29
*1639 FILLER_18_290
*1640 FILLER_18_3
*1641 FILLER_18_301
*1642 FILLER_18_307
*1643 FILLER_18_309
*1644 FILLER_18_317
*1645 FILLER_18_36
*1646 FILLER_18_59
*1647 FILLER_18_67
*1648 FILLER_18_80
*1649 FILLER_18_85
*1650 FILLER_19_10
*1651 FILLER_19_110
*1652 FILLER_19_113
*1653 FILLER_19_120
*1654 FILLER_19_14
*1655 FILLER_19_143
*1656 FILLER_19_167
*1657 FILLER_19_169
*1658 FILLER_19_191
*1659 FILLER_19_198
*1660 FILLER_19_209
*1661 FILLER_19_220
*1662 FILLER_19_225
*1663 FILLER_19_230
*1664 FILLER_19_239
*1665 FILLER_19_249
*1666 FILLER_19_260
*1667 FILLER_19_267
*1668 FILLER_19_277
*1669 FILLER_19_281
*1670 FILLER_19_3
*1671 FILLER_19_303
*1672 FILLER_19_307
*1673 FILLER_19_314
*1674 FILLER_19_39
*1675 FILLER_19_48
*1676 FILLER_19_55
*1677 FILLER_19_57
*1678 FILLER_19_61
*1679 FILLER_19_70
*1680 FILLER_19_85
*1681 FILLER_1_10
*1682 FILLER_1_102
*1683 FILLER_1_111
*1684 FILLER_1_113
*1685 FILLER_1_118
*1686 FILLER_1_156
*1687 FILLER_1_164
*1688 FILLER_1_169
*1689 FILLER_1_176
*1690 FILLER_1_18
*1691 FILLER_1_188
*1692 FILLER_1_200
*1693 FILLER_1_205
*1694 FILLER_1_216
*1695 FILLER_1_221
*1696 FILLER_1_225
*1697 FILLER_1_232
*1698 FILLER_1_237
*1699 FILLER_1_241
*1700 FILLER_1_245
*1701 FILLER_1_250
*1702 FILLER_1_255
*1703 FILLER_1_263
*1704 FILLER_1_267
*1705 FILLER_1_275
*1706 FILLER_1_279
*1707 FILLER_1_281
*1708 FILLER_1_288
*1709 FILLER_1_295
*1710 FILLER_1_3
*1711 FILLER_1_303
*1712 FILLER_1_309
*1713 FILLER_1_317
*1714 FILLER_1_35
*1715 FILLER_1_39
*1716 FILLER_1_47
*1717 FILLER_1_55
*1718 FILLER_1_57
*1719 FILLER_1_79
*1720 FILLER_20_100
*1721 FILLER_20_104
*1722 FILLER_20_111
*1723 FILLER_20_136
*1724 FILLER_20_141
*1725 FILLER_20_146
*1726 FILLER_20_157
*1727 FILLER_20_166
*1728 FILLER_20_173
*1729 FILLER_20_18
*1730 FILLER_20_184
*1731 FILLER_20_194
*1732 FILLER_20_197
*1733 FILLER_20_204
*1734 FILLER_20_228
*1735 FILLER_20_243
*1736 FILLER_20_251
*1737 FILLER_20_253
*1738 FILLER_20_258
*1739 FILLER_20_269
*1740 FILLER_20_27
*1741 FILLER_20_278
*1742 FILLER_20_282
*1743 FILLER_20_29
*1744 FILLER_20_292
*1745 FILLER_20_3
*1746 FILLER_20_302
*1747 FILLER_20_307
*1748 FILLER_20_309
*1749 FILLER_20_317
*1750 FILLER_20_33
*1751 FILLER_20_56
*1752 FILLER_20_60
*1753 FILLER_20_7
*1754 FILLER_20_83
*1755 FILLER_20_85
*1756 FILLER_20_92
*1757 FILLER_21_10
*1758 FILLER_21_111