*SPEF "ieee 1481-1999"
*DESIGN "adc_clkgen_with_edgedetect"
*DATE "11:11:11 Fri 11 11, 1111"
*VENDOR "OpenRCX"
*PROGRAM "Parallel Extraction"
*VERSION "1.0"
*DESIGN_FLOW "NAME_SCOPE LOCAL" "PIN_CAP NONE"
*DIVIDER /
*DELIMITER :
*BUS_DELIMITER []
*T_UNIT 1 NS
*C_UNIT 1 PF
*R_UNIT 1 OHM
*L_UNIT 1 HENRY

*NAME_MAP
*3 clk_comp
*4 clk_dig
*5 comp_trig
*6 ena_in
*7 start_conv
*10 _0_
*11 clkgen\.clk_comp
*12 clkgen\.clk_dig
*13 clkgen\.comp_trig
*14 clkgen\.comp_trig_delayed
*15 clkgen\.delay_100ns_1\._intsig_a_\[10\]
*16 clkgen\.delay_100ns_1\._intsig_a_\[11\]
*17 clkgen\.delay_100ns_1\._intsig_a_\[12\]
*18 clkgen\.delay_100ns_1\._intsig_a_\[13\]
*19 clkgen\.delay_100ns_1\._intsig_a_\[14\]
*20 clkgen\.delay_100ns_1\._intsig_a_\[15\]
*21 clkgen\.delay_100ns_1\._intsig_a_\[16\]
*22 clkgen\.delay_100ns_1\._intsig_a_\[17\]
*23 clkgen\.delay_100ns_1\._intsig_a_\[2\]
*24 clkgen\.delay_100ns_1\._intsig_a_\[3\]
*25 clkgen\.delay_100ns_1\._intsig_a_\[4\]
*26 clkgen\.delay_100ns_1\._intsig_a_\[5\]
*27 clkgen\.delay_100ns_1\._intsig_a_\[6\]
*28 clkgen\.delay_100ns_1\._intsig_a_\[7\]
*29 clkgen\.delay_100ns_1\._intsig_a_\[8\]
*30 clkgen\.delay_100ns_1\._intsig_a_\[9\]
*31 clkgen\.delay_100ns_2\._intsig_a_\[10\]
*32 clkgen\.delay_100ns_2\._intsig_a_\[11\]
*33 clkgen\.delay_100ns_2\._intsig_a_\[12\]
*34 clkgen\.delay_100ns_2\._intsig_a_\[13\]
*35 clkgen\.delay_100ns_2\._intsig_a_\[14\]
*36 clkgen\.delay_100ns_2\._intsig_a_\[15\]
*37 clkgen\.delay_100ns_2\._intsig_a_\[16\]
*38 clkgen\.delay_100ns_2\._intsig_a_\[17\]
*39 clkgen\.delay_100ns_2\._intsig_a_\[2\]
*40 clkgen\.delay_100ns_2\._intsig_a_\[3\]
*41 clkgen\.delay_100ns_2\._intsig_a_\[4\]
*42 clkgen\.delay_100ns_2\._intsig_a_\[5\]
*43 clkgen\.delay_100ns_2\._intsig_a_\[6\]
*44 clkgen\.delay_100ns_2\._intsig_a_\[7\]
*45 clkgen\.delay_100ns_2\._intsig_a_\[8\]
*46 clkgen\.delay_100ns_2\._intsig_a_\[9\]
*47 clkgen\.delay_100ns_2\.out
*48 clkgen\.delay_100ns_3\._intsig_a_\[10\]
*49 clkgen\.delay_100ns_3\._intsig_a_\[11\]
*50 clkgen\.delay_100ns_3\._intsig_a_\[12\]
*51 clkgen\.delay_100ns_3\._intsig_a_\[13\]
*52 clkgen\.delay_100ns_3\._intsig_a_\[14\]
*53 clkgen\.delay_100ns_3\._intsig_a_\[15\]
*54 clkgen\.delay_100ns_3\._intsig_a_\[16\]
*55 clkgen\.delay_100ns_3\._intsig_a_\[17\]
*56 clkgen\.delay_100ns_3\._intsig_a_\[1\]
*57 clkgen\.delay_100ns_3\._intsig_a_\[2\]
*58 clkgen\.delay_100ns_3\._intsig_a_\[3\]
*59 clkgen\.delay_100ns_3\._intsig_a_\[4\]
*60 clkgen\.delay_100ns_3\._intsig_a_\[5\]
*61 clkgen\.delay_100ns_3\._intsig_a_\[6\]
*62 clkgen\.delay_100ns_3\._intsig_a_\[7\]
*63 clkgen\.delay_100ns_3\._intsig_a_\[8\]
*64 clkgen\.delay_100ns_3\._intsig_a_\[9\]
*65 edgedetect\.delay_200ns\._intsig_a_\[10\]
*66 edgedetect\.delay_200ns\._intsig_a_\[11\]
*67 edgedetect\.delay_200ns\._intsig_a_\[12\]
*68 edgedetect\.delay_200ns\._intsig_a_\[13\]
*69 edgedetect\.delay_200ns\._intsig_a_\[14\]
*70 edgedetect\.delay_200ns\._intsig_a_\[15\]
*71 edgedetect\.delay_200ns\._intsig_a_\[16\]
*72 edgedetect\.delay_200ns\._intsig_a_\[17\]
*73 edgedetect\.delay_200ns\._intsig_a_\[18\]
*74 edgedetect\.delay_200ns\._intsig_a_\[19\]
*75 edgedetect\.delay_200ns\._intsig_a_\[1\]
*76 edgedetect\.delay_200ns\._intsig_a_\[20\]
*77 edgedetect\.delay_200ns\._intsig_a_\[21\]
*78 edgedetect\.delay_200ns\._intsig_a_\[22\]
*79 edgedetect\.delay_200ns\._intsig_a_\[23\]
*80 edgedetect\.delay_200ns\._intsig_a_\[24\]
*81 edgedetect\.delay_200ns\._intsig_a_\[25\]
*82 edgedetect\.delay_200ns\._intsig_a_\[26\]
*83 edgedetect\.delay_200ns\._intsig_a_\[27\]
*84 edgedetect\.delay_200ns\._intsig_a_\[28\]
*85 edgedetect\.delay_200ns\._intsig_a_\[29\]
*86 edgedetect\.delay_200ns\._intsig_a_\[2\]
*87 edgedetect\.delay_200ns\._intsig_a_\[30\]
*88 edgedetect\.delay_200ns\._intsig_a_\[31\]
*89 edgedetect\.delay_200ns\._intsig_a_\[32\]
*90 edgedetect\.delay_200ns\._intsig_a_\[33\]
*91 edgedetect\.delay_200ns\._intsig_a_\[34\]
*92 edgedetect\.delay_200ns\._intsig_a_\[3\]
*93 edgedetect\.delay_200ns\._intsig_a_\[4\]
*94 edgedetect\.delay_200ns\._intsig_a_\[5\]
*95 edgedetect\.delay_200ns\._intsig_a_\[6\]
*96 edgedetect\.delay_200ns\._intsig_a_\[7\]
*97 edgedetect\.delay_200ns\._intsig_a_\[8\]
*98 edgedetect\.delay_200ns\._intsig_a_\[9\]
*99 edgedetect\.delay_200ns\.out
*100 edgedetect\.ena_in
*101 FILLER_0_119
*102 FILLER_0_123
*103 FILLER_0_15
*104 FILLER_0_150
*105 FILLER_0_154
*106 FILLER_0_156
*107 FILLER_0_168
*108 FILLER_0_180
*109 FILLER_0_187
*110 FILLER_0_27
*111 FILLER_0_3
*112 FILLER_0_57
*113 FILLER_0_61
*114 FILLER_0_88
*115 FILLER_0_92
*116 FILLER_10_100
*117 FILLER_10_126
*118 FILLER_10_138
*119 FILLER_10_150
*120 FILLER_10_154
*121 FILLER_10_156
*122 FILLER_10_160
*123 FILLER_10_18
*124 FILLER_10_186
*125 FILLER_10_30
*126 FILLER_10_32
*127 FILLER_10_6
*128 FILLER_10_60
*129 FILLER_10_89
*130 FILLER_10_94
*131 FILLER_11_115
*132 FILLER_11_123
*133 FILLER_11_150
*134 FILLER_11_179
*135 FILLER_11_185
*136 FILLER_11_187
*137 FILLER_11_29
*138 FILLER_11_3
*139 FILLER_11_58
*140 FILLER_11_63
*141 FILLER_11_75
*142 FILLER_11_87
*143 FILLER_12_102
*144 FILLER_12_129
*145 FILLER_12_141
*146 FILLER_12_15
*147 FILLER_12_153
*148 FILLER_12_181
*149 FILLER_12_189
*150 FILLER_12_27
*151 FILLER_12_3
*152 FILLER_12_32
*153 FILLER_12_59
*154 FILLER_12_63
*155 FILLER_12_89
*156 FILLER_12_94
*157 FILLER_13_102
*158 FILLER_13_114
*159 FILLER_13_122
*160 FILLER_13_15
*161 FILLER_13_150
*162 FILLER_13_156
*163 FILLER_13_182
*164 FILLER_13_187
*165 FILLER_13_3
*166 FILLER_13_46
*167 FILLER_13_58
*168 FILLER_13_63
*169 FILLER_13_75
*170 FILLER_14_119
*171 FILLER_14_125
*172 FILLER_14_15
*173 FILLER_14_151
*174 FILLER_14_181
*175 FILLER_14_189
*176 FILLER_14_27
*177 FILLER_14_3
*178 FILLER_14_32
*179 FILLER_14_44
*180 FILLER_14_75
*181 FILLER_14_87
*182 FILLER_15_117
*183 FILLER_15_123
*184 FILLER_15_125
*185 FILLER_15_137
*186 FILLER_15_143
*187 FILLER_15_169
*188 FILLER_15_175
*189 FILLER_15_182
*190 FILLER_15_187
*191 FILLER_15_3
*192 FILLER_15_36
*193 FILLER_15_48
*194 FILLER_15_60
*195 FILLER_15_88
*196 FILLER_16_119
*197 FILLER_16_148
*198 FILLER_16_154
*199 FILLER_16_156
*200 FILLER_16_160
*201 FILLER_16_18
*202 FILLER_16_186
*203 FILLER_16_30
*204 FILLER_16_57
*205 FILLER_16_6
*206 FILLER_16_86
*207 FILLER_16_92
*208 FILLER_17_117
*209 FILLER_17_123
*210 FILLER_17_150
*211 FILLER_17_156
*212 FILLER_17_182
*213 FILLER_17_187
*214 FILLER_17_28
*215 FILLER_17_57
*216 FILLER_17_61
*217 FILLER_17_88
*218 FILLER_18_119
*219 FILLER_18_123
*220 FILLER_18_125
*221 FILLER_18_137
*222 FILLER_18_149
*223 FILLER_18_15
*224 FILLER_18_156
*225 FILLER_18_168
*226 FILLER_18_180
*227 FILLER_18_187
*228 FILLER_18_27
*229 FILLER_18_3
*230 FILLER_18_57
*231 FILLER_18_61
*232 FILLER_18_88
*233 FILLER_18_92
*234 FILLER_1_117
*235 FILLER_1_123
*236 FILLER_1_150
*237 FILLER_1_162
*238 FILLER_1_174
*239 FILLER_1_182
*240 FILLER_1_187
*241 FILLER_1_28
*242 FILLER_1_57
*243 FILLER_1_61
*244 FILLER_1_88
*245 FILLER_2_119
*246 FILLER_2_148
*247 FILLER_2_15
*248 FILLER_2_154
*249 FILLER_2_156
*250 FILLER_2_160
*251 FILLER_2_186
*252 FILLER_2_27
*253 FILLER_2_3
*254 FILLER_2_57
*255 FILLER_2_86
*256 FILLER_2_92
*257 FILLER_3_117
*258 FILLER_3_123
*259 FILLER_3_150
*260 FILLER_3_156
*261 FILLER_3_182
*262 FILLER_3_187
*263 FILLER_3_3
*264 FILLER_3_30
*265 FILLER_3_42
*266 FILLER_3_54
*267 FILLER_3_88
*268 FILLER_4_119
*269 FILLER_4_148
*270 FILLER_4_15
*271 FILLER_4_154
*272 FILLER_4_156
*273 FILLER_4_160
*274 FILLER_4_186
*275 FILLER_4_27
*276 FILLER_4_3
*277 FILLER_4_57
*278 FILLER_4_86
*279 FILLER_4_92
*280 FILLER_5_112
*281 FILLER_5_150
*282 FILLER_5_156
*283 FILLER_5_182
*284 FILLER_5_187
*285 FILLER_5_39
*286 FILLER_5_51
*287 FILLER_5_59
*288 FILLER_5_6
*289 FILLER_5_63
*290 FILLER_5_75
*291 FILLER_6_106
*292 FILLER_6_110
*293 FILLER_6_136
*294 FILLER_6_15
*295 FILLER_6_151
*296 FILLER_6_181
*297 FILLER_6_189
*298 FILLER_6_27
*299 FILLER_6_3
*300 FILLER_6_57
*301 FILLER_6_88
*302 FILLER_6_92
*303 FILLER_6_94
*304 FILLER_7_120
*305 FILLER_7_150
*306 FILLER_7_179
*307 FILLER_7_185
*308 FILLER_7_187
*309 FILLER_7_29
*310 FILLER_7_3
*311 FILLER_7_58
*312 FILLER_7_63
*313 FILLER_7_91
*314 FILLER_8_106
*315 FILLER_8_13
*316 FILLER_8_139
*317 FILLER_8_151
*318 FILLER_8_181
*319 FILLER_8_189
*320 FILLER_8_25
*321 FILLER_8_3
*322 FILLER_8_57
*323 FILLER_8_86
*324 FILLER_8_92
*325 FILLER_8_94
*326 FILLER_9_113
*327 FILLER_9_121
*328 FILLER_9_125
*329 FILLER_9_14
*330 FILLER_9_153
*331 FILLER_9_182
*332 FILLER_9_187
*333 FILLER_9_22
*334 FILLER_9_3
*335 FILLER_9_49
*336 FILLER_9_61
*337 FILLER_9_63
*338 FILLER_9_75
*339 FILLER_9_87
*340 PHY_0
*341 PHY_1
*342 PHY_10
*343 PHY_11
*344 PHY_12
*345 PHY_13
*346 PHY_14
*347 PHY_15
*348 PHY_16
*349 PHY_17
*350 PHY_18
*351 PHY_19
*352 PHY_2
*353 PHY_20
*354 PHY_21
*355 PHY_22
*356 PHY_23
*357 PHY_24
*358 PHY_25
*359 PHY_26
*360 PHY_27
*361 PHY_28
*362 PHY_29
*363 PHY_3
*364 PHY_30
*365 PHY_31
*366 PHY_32
*367 PHY_33
*368 PHY_34
*369 PHY_35
*370 PHY_36
*371 PHY_37
*372 PHY_4
*373 PHY_5
*374 PHY_6
*375 PHY_7
*376 PHY_8
*377 PHY_9
*378 TAP_100
*379 TAP_38
*380 TAP_39
*381 TAP_40
*382 TAP_41
*383 TAP_42
*384 TAP_43
*385 TAP_44
*386 TAP_45
*387 TAP_46
*388 TAP_47
*389 TAP_48
*390 TAP_49
*391 TAP_50
*392 TAP_51
*393 TAP_52
*394 TAP_53
*395 TAP_54
*396 TAP_55
*397 TAP_56
*398 TAP_57
*399 TAP_58
*400 TAP_59
*401 TAP_60
*402 TAP_61
*403 TAP_62
*404 TAP_63
*405 TAP_64
*406 TAP_65
*407 TAP_66
*408 TAP_67
*409 TAP_68
*410 TAP_69
*411 TAP_70
*412 TAP_71
*413 TAP_72
*414 TAP_73
*415 TAP_74
*416 TAP_75
*417 TAP_76
*418 TAP_77
*419 TAP_78
*420 TAP_79
*421 TAP_80
*422 TAP_81
*423 TAP_82
*424 TAP_83
*425 TAP_84
*426 TAP_85
*427 TAP_86
*428 TAP_87
*429 TAP_88
*430 TAP_89
*431 TAP_90
*432 TAP_91
*433 TAP_92
*434 TAP_93
*435 TAP_94
*436 TAP_95
*437 TAP_96
*438 TAP_97
*439 TAP_98
*440 TAP_99
*441 _1_
*442 _2_
*443 _3_
*444 clkgen\.delay_100ns_1\.genblk1\[10\]\.delay_unit
*445 clkgen\.delay_100ns_1\.genblk1\[11\]\.delay_unit
*446 clkgen\.delay_100ns_1\.genblk1\[12\]\.delay_unit
*447 clkgen\.delay_100ns_1\.genblk1\[13\]\.delay_unit
*448 clkgen\.delay_100ns_1\.genblk1\[14\]\.delay_unit
*449 clkgen\.delay_100ns_1\.genblk1\[15\]\.delay_unit
*450 clkgen\.delay_100ns_1\.genblk1\[16\]\.delay_unit
*451 clkgen\.delay_100ns_1\.genblk1\[17\]\.delay_unit
*452 clkgen\.delay_100ns_1\.genblk1\[1\]\.delay_unit
*453 clkgen\.delay_100ns_1\.genblk1\[2\]\.delay_unit
*454 clkgen\.delay_100ns_1\.genblk1\[3\]\.delay_unit
*455 clkgen\.delay_100ns_1\.genblk1\[4\]\.delay_unit
*456 clkgen\.delay_100ns_1\.genblk1\[5\]\.delay_unit
*457 clkgen\.delay_100ns_1\.genblk1\[6\]\.delay_unit
*458 clkgen\.delay_100ns_1\.genblk1\[7\]\.delay_unit
*459 clkgen\.delay_100ns_1\.genblk1\[8\]\.delay_unit
*460 clkgen\.delay_100ns_1\.genblk1\[9\]\.delay_unit
*461 clkgen\.delay_100ns_2\.genblk1\[10\]\.delay_unit
*462 clkgen\.delay_100ns_2\.genblk1\[11\]\.delay_unit
*463 clkgen\.delay_100ns_2\.genblk1\[12\]\.delay_unit
*464 clkgen\.delay_100ns_2\.genblk1\[13\]\.delay_unit
*465 clkgen\.delay_100ns_2\.genblk1\[14\]\.delay_unit
*466 clkgen\.delay_100ns_2\.genblk1\[15\]\.delay_unit
*467 clkgen\.delay_100ns_2\.genblk1\[16\]\.delay_unit
*468 clkgen\.delay_100ns_2\.genblk1\[17\]\.delay_unit
*469 clkgen\.delay_100ns_2\.genblk1\[1\]\.delay_unit
*470 clkgen\.delay_100ns_2\.genblk1\[2\]\.delay_unit
*471 clkgen\.delay_100ns_2\.genblk1\[3\]\.delay_unit
*472 clkgen\.delay_100ns_2\.genblk1\[4\]\.delay_unit
*473 clkgen\.delay_100ns_2\.genblk1\[5\]\.delay_unit
*474 clkgen\.delay_100ns_2\.genblk1\[6\]\.delay_unit
*475 clkgen\.delay_100ns_2\.genblk1\[7\]\.delay_unit
*476 clkgen\.delay_100ns_2\.genblk1\[8\]\.delay_unit
*477 clkgen\.delay_100ns_2\.genblk1\[9\]\.delay_unit
*478 clkgen\.delay_100ns_3\.genblk1\[10\]\.delay_unit
*479 clkgen\.delay_100ns_3\.genblk1\[11\]\.delay_unit
*480 clkgen\.delay_100ns_3\.genblk1\[12\]\.delay_unit
*481 clkgen\.delay_100ns_3\.genblk1\[13\]\.delay_unit
*482 clkgen\.delay_100ns_3\.genblk1\[14\]\.delay_unit
*483 clkgen\.delay_100ns_3\.genblk1\[15\]\.delay_unit
*484 clkgen\.delay_100ns_3\.genblk1\[16\]\.delay_unit
*485 clkgen\.delay_100ns_3\.genblk1\[17\]\.delay_unit
*486 clkgen\.delay_100ns_3\.genblk1\[1\]\.delay_unit
*487 clkgen\.delay_100ns_3\.genblk1\[2\]\.delay_unit
*488 clkgen\.delay_100ns_3\.genblk1\[3\]\.delay_unit
*489 clkgen\.delay_100ns_3\.genblk1\[4\]\.delay_unit
*490 clkgen\.delay_100ns_3\.genblk1\[5\]\.delay_unit
*491 clkgen\.delay_100ns_3\.genblk1\[6\]\.delay_unit
*492 clkgen\.delay_100ns_3\.genblk1\[7\]\.delay_unit
*493 clkgen\.delay_100ns_3\.genblk1\[8\]\.delay_unit
*494 clkgen\.delay_100ns_3\.genblk1\[9\]\.delay_unit
*495 edgedetect\.delay_200ns\.genblk1\[10\]\.delay_unit
*496 edgedetect\.delay_200ns\.genblk1\[11\]\.delay_unit
*497 edgedetect\.delay_200ns\.genblk1\[12\]\.delay_unit
*498 edgedetect\.delay_200ns\.genblk1\[13\]\.delay_unit
*499 edgedetect\.delay_200ns\.genblk1\[14\]\.delay_unit
*500 edgedetect\.delay_200ns\.genblk1\[15\]\.delay_unit
*501 edgedetect\.delay_200ns\.genblk1\[16\]\.delay_unit
*502 edgedetect\.delay_200ns\.genblk1\[17\]\.delay_unit
*503 edgedetect\.delay_200ns\.genblk1\[18\]\.delay_unit
*504 edgedetect\.delay_200ns\.genblk1\[19\]\.delay_unit
*505 edgedetect\.delay_200ns\.genblk1\[1\]\.delay_unit
*506 edgedetect\.delay_200ns\.genblk1\[20\]\.delay_unit
*507 edgedetect\.delay_200ns\.genblk1\[21\]\.delay_unit
*508 edgedetect\.delay_200ns\.genblk1\[22\]\.delay_unit
*509 edgedetect\.delay_200ns\.genblk1\[23\]\.delay_unit
*510 edgedetect\.delay_200ns\.genblk1\[24\]\.delay_unit
*511 edgedetect\.delay_200ns\.genblk1\[25\]\.delay_unit
*512 edgedetect\.delay_200ns\.genblk1\[26\]\.delay_unit
*513 edgedetect\.delay_200ns\.genblk1\[27\]\.delay_unit
*514 edgedetect\.delay_200ns\.genblk1\[28\]\.delay_unit
*515 edgedetect\.delay_200ns\.genblk1\[29\]\.delay_unit
*516 edgedetect\.delay_200ns\.genblk1\[2\]\.delay_unit
*517 edgedetect\.delay_200ns\.genblk1\[30\]\.delay_unit
*518 edgedetect\.delay_200ns\.genblk1\[31\]\.delay_unit
*519 edgedetect\.delay_200ns\.genblk1\[32\]\.delay_unit
*520 edgedetect\.delay_200ns\.genblk1\[33\]\.delay_unit
*521 edgedetect\.delay_200ns\.genblk1\[34\]\.delay_unit
*522 edgedetect\.delay_200ns\.genblk1\[3\]\.delay_unit
*523 edgedetect\.delay_200ns\.genblk1\[4\]\.delay_unit
*524 edgedetect\.delay_200ns\.genblk1\[5\]\.delay_unit
*525 edgedetect\.delay_200ns\.genblk1\[6\]\.delay_unit
*526 edgedetect\.delay_200ns\.genblk1\[7\]\.delay_unit
*527 edgedetect\.delay_200ns\.genblk1\[8\]\.delay_unit
*528 edgedetect\.delay_200ns\.genblk1\[9\]\.delay_unit
*529 inbuf_1
*530 inbuf_2
*531 inbuf_3
*532 outbuf_1
*533 outbuf_2

*PORTS
clk_comp O
clk_dig O
comp_trig I
ena_in I
start_conv I

*D_NET *3 0.00100054
*CONN
*P clk_comp O
*I *533:X O *D sky130_fd_sc_hd__buf_4
*CAP
1 clk_comp 0.000394522
2 *533:X 0.000105749
3 *3:8 0.000500271
4 *3:8 *11:12 0
*RES
1 *533:X *3:8 48.7861 
2 *3:8 clk_comp 1.7024 
*END

*D_NET *4 0.00106473
*CONN
*P clk_dig O
*I *532:X O *D sky130_fd_sc_hd__buf_4
*CAP
1 clk_dig 0.000334825
2 *532:X 0.000197538
3 *4:8 0.000532363
4 *4:8 *39:6 0
5 *4:8 *84:18 0
*RES
1 *532:X *4:8 43.0646 
2 *4:8 clk_dig 9.4448 
*END

*D_NET *5 0.000830259
*CONN
*P comp_trig I
*I *531:A I *D sky130_fd_sc_hd__buf_1
*CAP
1 comp_trig 0.000415129
2 *531:A 0
3 *5:10 0.000415129
4 *5:10 *24:8 0
5 *5:10 *99:24 0
*RES
1 comp_trig *5:10 30.0654 
2 *5:10 *531:A 23 
*END

*D_NET *6 0.00141858
*CONN
*P ena_in I
*I *529:A I *D sky130_fd_sc_hd__buf_1
*CAP
1 ena_in 0.000709291
2 *529:A 0
3 *6:10 0.000709291
4 *6:10 *47:12 0
5 *6:10 *58:6 0
6 *6:10 *75:18 0
*RES
1 ena_in *6:10 37.8125 
2 *6:10 *529:A 23 
*END

*D_NET *7 0.000536097
*CONN
*P start_conv I
*I *530:A I *D sky130_fd_sc_hd__buf_1
*CAP
1 start_conv 0.000268049
2 *530:A 0.000268049
3 *530:A *75:6 0
4 *530:A *99:24 0
*RES
1 start_conv *530:A 49.1918 
*END

*D_NET *10 0.000222801
*CONN
*I *443:A2 I *D sky130_fd_sc_hd__o21ba_2
*I *442:X O *D sky130_fd_sc_hd__and2b_2
*CAP
1 *443:A2 0
2 *442:X 0.0001114
3 *10:8 0.0001114
4 *10:8 *75:9 0
5 *10:8 *75:18 0
6 *10:8 *100:6 0
*RES
1 *442:X *10:8 40.8793 
2 *10:8 *443:A2 38 
*END

*D_NET *11 0.00131828
*CONN
*I *533:A I *D sky130_fd_sc_hd__buf_4
*I *485:out O *D sky130_mm_sc_hd_dlyPoly6ns
*CAP
1 *533:A 8.4707e-05
2 *485:out 6.56751e-05
3 *11:12 0.000593466
4 *11:6 0.000574434
5 *11:6 *55:16 0
6 *11:12 *54:6 0
7 *11:12 *55:16 0
8 *3:8 *11:12 0
*RES
1 *485:out *11:6 39.7296 
2 *11:6 *11:12 42.9257 
3 *11:12 *533:A 40.0507 
*END

*D_NET *12 0.00256492
*CONN
*I *469:in I *D sky130_mm_sc_hd_dlyPoly6ns
*I *532:A I *D sky130_fd_sc_hd__buf_4
*I *441:Y O *D sky130_fd_sc_hd__inv_2
*CAP
1 *469:in 0.000242142
2 *532:A 0
3 *441:Y 0.000403882
4 *12:11 0.000636436
5 *12:6 0.00128246
6 *469:in *518:in 0
7 *12:6 *72:10 0
8 *12:6 *83:15 0
9 *12:6 *87:15 0
10 *12:11 *72:10 0
*RES
1 *441:Y *12:6 48.7093 
2 *12:6 *12:11 30.6186 
3 *12:11 *532:A 23 
4 *12:6 *469:in 43.8621 
*END

*D_NET *13 0.00115681
*CONN
*I *452:in I *D sky130_mm_sc_hd_dlyPoly6ns
*I *531:X O *D sky130_fd_sc_hd__buf_1
*CAP
1 *452:in 0
2 *531:X 0.000578403
3 *13:9 0.000578403
*RES
1 *531:X *13:9 37.0029 
2 *13:9 *452:in 23 
*END

*D_NET *14 0.00106606
*CONN
*I *441:A I *D sky130_fd_sc_hd__inv_2
*I *451:out O *D sky130_mm_sc_hd_dlyPoly6ns
*CAP
1 *441:A 6.50276e-05
2 *451:out 0.000468001
3 *14:12 0.000533028
4 *14:12 *40:10 0
5 *14:12 *41:6 0
6 *14:12 *87:15 0
*RES
1 *451:out *14:12 49.8693 
2 *14:12 *441:A 39.5743 
*END

*D_NET *15 0.000347722
*CONN
*I *444:in I *D sky130_mm_sc_hd_dlyPoly6ns
*I *460:out O *D sky130_mm_sc_hd_dlyPoly6ns
*CAP
1 *444:in 0
2 *460:out 0.000173861
3 *15:10 0.000173861
4 *15:10 *68:8 0
5 *15:10 *74:12 0
*RES
1 *460:out *15:10 42.3914 
2 *15:10 *444:in 38 
*END

*D_NET *16 0.000184834
*CONN
*I *445:in I *D sky130_mm_sc_hd_dlyPoly6ns
*I *444:out O *D sky130_mm_sc_hd_dlyPoly6ns
*CAP
1 *445:in 0
2 *444:out 9.2417e-05
3 *16:6 9.2417e-05
4 *16:6 *76:8 0
5 *16:6 *81:16 0
*RES
1 *444:out *16:6 40.4339 
2 *16:6 *445:in 38 
*END

*D_NET *17 0.000581244
*CONN
*I *446:in I *D sky130_mm_sc_hd_dlyPoly6ns
*I *445:out O *D sky130_mm_sc_hd_dlyPoly6ns
*CAP
1 *446:in 0
2 *445:out 0.000290622
3 *17:8 0.000290622
4 *17:8 *70:10 0
5 *17:8 *89:6 0
*RES
1 *445:out *17:8 45.6539 
2 *17:8 *446:in 38 
*END

*D_NET *18 0.00026506
*CONN
*I *447:in I *D sky130_mm_sc_hd_dlyPoly6ns
*I *446:out O *D sky130_mm_sc_hd_dlyPoly6ns
*CAP
1 *447:in 0
2 *446:out 0.00013253
3 *18:6 0.00013253
4 *18:6 *89:6 0
5 *18:6 *90:10 0
*RES
1 *446:out *18:6 41.4904 
2 *18:6 *447:in 38 
*END

*D_NET *19 0.000591372
*CONN
*I *448:in I *D sky130_mm_sc_hd_dlyPoly6ns
*I *447:out O *D sky130_mm_sc_hd_dlyPoly6ns
*CAP
1 *448:in 0
2 *447:out 0.000295686
3 *19:12 0.000295686
4 *19:12 *87:15 0
*RES
1 *447:out *19:12 45.4986 
2 *19:12 *448:in 38 
*END

*D_NET *20 0.000427869
*CONN
*I *449:in I *D sky130_mm_sc_hd_dlyPoly6ns
*I *448:out O *D sky130_mm_sc_hd_dlyPoly6ns
*CAP
1 *449:in 0
2 *448:out 0.000213935
3 *20:10 0.000213935
4 *20:10 *84:18 0
*RES
1 *448:out *20:10 43.4479 
2 *20:10 *449:in 38 
*END

*D_NET *21 0.000184834
*CONN
*I *450:in I *D sky130_mm_sc_hd_dlyPoly6ns
*I *449:out O *D sky130_mm_sc_hd_dlyPoly6ns
*CAP
1 *450:in 0
2 *449:out 9.2417e-05
3 *21:6 9.2417e-05
4 *21:6 *87:15 0
*RES
1 *449:out *21:6 40.4339 
2 *21:6 *450:in 38 
*END

*D_NET *22 0.00144414
*CONN
*I *451:in I *D sky130_mm_sc_hd_dlyPoly6ns
*I *450:out O *D sky130_mm_sc_hd_dlyPoly6ns
*CAP
1 *451:in 0
2 *450:out 8.81295e-05
3 *22:12 0.000633942
4 *22:9 0.000722071
5 *22:12 *84:18 0
*RES
1 *450:out *22:9 40.1336 
2 *22:9 *22:12 31.6957 
3 *22:12 *451:in 23 
*END

*D_NET *23 0.00130665
*CONN
*I *453:in I *D sky130_mm_sc_hd_dlyPoly6ns
*I *452:out O *D sky130_mm_sc_hd_dlyPoly6ns
*CAP
1 *453:in 0
2 *452:out 0.000469911
3 *23:15 0.000183413
4 *23:9 0.000653324
5 *23:9 *57:11 0
6 *23:9 *93:12 0
7 *23:15 *57:12 0
8 *23:15 *94:10 0
*RES
1 *452:out *23:9 49.3269 
2 *23:9 *23:15 27.6089 
3 *23:15 *453:in 23 
*END

*D_NET *24 0.001308
*CONN
*I *454:in I *D sky130_mm_sc_hd_dlyPoly6ns
*I *453:out O *D sky130_mm_sc_hd_dlyPoly6ns
*CAP
1 *454:in 0
2 *453:out 0
3 *24:8 0.000653998
4 *24:5 0.000653998
5 *24:8 *99:24 0
6 *5:10 *24:8 0
*RES
1 *453:out *24:5 38 
2 *24:5 *24:8 32.2239 
3 *24:8 *454:in 23 
*END

*D_NET *25 0.00121905
*CONN
*I *455:in I *D sky130_mm_sc_hd_dlyPoly6ns
*I *454:out O *D sky130_mm_sc_hd_dlyPoly6ns
*CAP
1 *455:in 0.000420006
2 *454:out 0.000189521
3 *25:11 0.000609527
4 *455:in *57:12 0
5 *455:in *94:10 0
*RES
1 *454:out *25:11 42.6607 
2 *25:11 *455:in 49.0614 
*END

*D_NET *26 0.000701861
*CONN
*I *456:in I *D sky130_mm_sc_hd_dlyPoly6ns
*I *455:out O *D sky130_mm_sc_hd_dlyPoly6ns
*CAP
1 *456:in 6.50276e-05
2 *455:out 0.000285903
3 *26:8 0.00035093
4 *26:8 *99:24 0
*RES
1 *455:out *26:8 45.5296 
2 *26:8 *456:in 39.5743 
*END

*D_NET *27 0.00026506
*CONN
*I *457:in I *D sky130_mm_sc_hd_dlyPoly6ns
*I *456:out O *D sky130_mm_sc_hd_dlyPoly6ns
*CAP
1 *457:in 0
2 *456:out 0.00013253
3 *27:6 0.00013253
4 *27:6 *94:10 0
*RES
1 *456:out *27:6 41.4904 
2 *27:6 *457:in 38 
*END

*D_NET *28 0.000184834
*CONN
*I *458:in I *D sky130_mm_sc_hd_dlyPoly6ns
*I *457:out O *D sky130_mm_sc_hd_dlyPoly6ns
*CAP
1 *458:in 0
2 *457:out 9.2417e-05
3 *28:6 9.2417e-05
4 *28:6 *93:12 0
*RES
1 *457:out *28:6 40.4339 
2 *28:6 *458:in 38 
*END

*D_NET *29 0.00169464
*CONN
*I *459:in I *D sky130_mm_sc_hd_dlyPoly6ns
*I *458:out O *D sky130_mm_sc_hd_dlyPoly6ns
*CAP
1 *459:in 0
2 *458:out 0.000231868
3 *29:15 0.000615451
4 *29:7 0.000847319
5 *29:15 *60:8 0
6 *29:15 *93:12 0
*RES
1 *458:out *29:7 47.0005 
2 *29:7 *29:15 38.6082 
3 *29:15 *459:in 23 
*END

*D_NET *30 0.000823967
*CONN
*I *460:in I *D sky130_mm_sc_hd_dlyPoly6ns
*I *459:out O *D sky130_mm_sc_hd_dlyPoly6ns
*CAP
1 *460:in 0
2 *459:out 0.000157895
3 *30:12 0.000254088
4 *30:6 0.000411984
5 *30:6 *98:8 0
6 *30:12 *65:18 0
*RES
1 *459:out *30:6 42.1946 
2 *30:6 *30:12 36.3386 
3 *30:12 *460:in 38 
*END

*D_NET *31 0.000476849
*CONN
*I *461:in I *D sky130_mm_sc_hd_dlyPoly6ns
*I *477:out O *D sky130_mm_sc_hd_dlyPoly6ns
*CAP
1 *461:in 2.56688e-05
2 *477:out 0.000212756
3 *31:6 0.000238425
4 *31:6 *68:8 0
5 *31:6 *74:12 0
*RES
1 *477:out *31:6 43.6032 
2 *31:6 *461:in 38.6214 
*END

*D_NET *32 0.000601694
*CONN
*I *462:in I *D sky130_mm_sc_hd_dlyPoly6ns
*I *461:out O *D sky130_mm_sc_hd_dlyPoly6ns
*CAP
1 *462:in 0
2 *461:out 0.000300847
3 *32:8 0.000300847
4 *32:8 *65:18 0
5 *32:8 *98:8 0
*RES
1 *461:out *32:8 45.9232 
2 *32:8 *462:in 38 
*END

*D_NET *33 0.000896643
*CONN
*I *463:in I *D sky130_mm_sc_hd_dlyPoly6ns
*I *462:out O *D sky130_mm_sc_hd_dlyPoly6ns
*CAP
1 *463:in 0
2 *462:out 0.000448321
3 *33:12 0.000448321
4 *33:12 *93:12 0
5 *33:12 *96:12 0
*RES
1 *462:out *33:12 49.3929 
2 *33:12 *463:in 38 
*END

*D_NET *34 0.000184834
*CONN
*I *464:in I *D sky130_mm_sc_hd_dlyPoly6ns
*I *463:out O *D sky130_mm_sc_hd_dlyPoly6ns
*CAP
1 *464:in 0
2 *463:out 9.2417e-05
3 *34:6 9.2417e-05
4 *34:6 *56:13 0
5 *34:6 *57:12 0
6 *34:6 *94:10 0
*RES
1 *463:out *34:6 40.4339 
2 *34:6 *464:in 38 
*END

*D_NET *35 0.00026506
*CONN
*I *465:in I *D sky130_mm_sc_hd_dlyPoly6ns
*I *464:out O *D sky130_mm_sc_hd_dlyPoly6ns
*CAP
1 *465:in 0
2 *464:out 0.00013253
3 *35:6 0.00013253
4 *35:6 *93:12 0
*RES
1 *464:out *35:6 41.4904 
2 *35:6 *465:in 38 
*END

*D_NET *36 0.000184834
*CONN
*I *466:in I *D sky130_mm_sc_hd_dlyPoly6ns
*I *465:out O *D sky130_mm_sc_hd_dlyPoly6ns
*CAP
1 *466:in 0
2 *465:out 9.2417e-05
3 *36:6 9.2417e-05
4 *36:6 *57:12 0
5 *36:6 *94:10 0
*RES
1 *465:out *36:6 40.4339 
2 *36:6 *466:in 38 
*END

*D_NET *37 0.000828062
*CONN
*I *467:in I *D sky130_mm_sc_hd_dlyPoly6ns
*I *466:out O *D sky130_mm_sc_hd_dlyPoly6ns
*CAP
1 *467:in 0.000281501
2 *466:out 0.00013253
3 *37:6 0.000414031
4 *37:6 *47:12 0
*RES
1 *466:out *37:6 41.4904 
2 *37:6 *467:in 44.815 
*END

*D_NET *38 0.0041993
*CONN
*I *468:in I *D sky130_mm_sc_hd_dlyPoly6ns
*I *467:out O *D sky130_mm_sc_hd_dlyPoly6ns
*CAP
1 *468:in 0
2 *467:out 0.000173861
3 *38:30 0.000453433
4 *38:25 0.00125706
5 *38:16 0.00147236
6 *38:10 0.000842593
7 *38:10 *93:12 0
8 *38:10 *96:12 0
9 *38:16 *68:8 0
10 *38:16 *74:12 0
11 *38:16 *94:16 0
12 *38:25 *81:9 0
13 *38:30 *80:17 0
14 *38:30 *82:18 0
15 *38:30 *85:12 0
16 *38:30 *89:6 0
17 *38:30 *90:22 0
*RES
1 *467:out *38:10 42.3914 
2 *38:10 *38:16 46.3436 
3 *38:16 *38:25 48.1199 
4 *38:25 *38:30 34.9418 
5 *38:30 *468:in 23 
*END

*D_NET *39 0.00026506
*CONN
*I *470:in I *D sky130_mm_sc_hd_dlyPoly6ns
*I *469:out O *D sky130_mm_sc_hd_dlyPoly6ns
*CAP
1 *470:in 0
2 *469:out 0.00013253
3 *39:6 0.00013253
4 *39:6 *84:18 0
5 *4:8 *39:6 0
*RES
1 *469:out *39:6 41.4904 
2 *39:6 *470:in 38 
*END

*D_NET *40 0.000881698
*CONN
*I *471:in I *D sky130_mm_sc_hd_dlyPoly6ns
*I *470:out O *D sky130_mm_sc_hd_dlyPoly6ns
*CAP
1 *471:in 0
2 *470:out 0.000440849
3 *40:10 0.000440849
4 *40:10 *87:15 0
5 *40:10 *88:14 0
6 *14:12 *40:10 0
*RES
1 *470:out *40:10 49.6104 
2 *40:10 *471:in 38 
*END

*D_NET *41 0.000184834
*CONN
*I *472:in I *D sky130_mm_sc_hd_dlyPoly6ns
*I *471:out O *D sky130_mm_sc_hd_dlyPoly6ns
*CAP
1 *472:in 0
2 *471:out 9.2417e-05
3 *41:6 9.2417e-05
4 *14:12 *41:6 0
*RES
1 *471:out *41:6 40.4339 
2 *41:6 *472:in 38 
*END

*D_NET *42 0.000518566
*CONN
*I *473:in I *D sky130_mm_sc_hd_dlyPoly6ns
*I *472:out O *D sky130_mm_sc_hd_dlyPoly6ns
*CAP
1 *473:in 4.53482e-05
2 *472:out 0.000213935
3 *42:10 0.000259283
4 *42:10 *84:18 0
*RES
1 *472:out *42:10 43.4479 
2 *42:10 *473:in 39.0979 
*END

*D_NET *43 0.000379042
*CONN
*I *474:in I *D sky130_mm_sc_hd_dlyPoly6ns
*I *473:out O *D sky130_mm_sc_hd_dlyPoly6ns
*CAP
1 *474:in 0
2 *473:out 0.000189521
3 *43:9 0.000189521
*RES
1 *473:out *43:9 27.6607 
2 *43:9 *474:in 23 
*END

*D_NET *44 0.00026506
*CONN
*I *475:in I *D sky130_mm_sc_hd_dlyPoly6ns
*I *474:out O *D sky130_mm_sc_hd_dlyPoly6ns
*CAP
1 *475:in 0
2 *474:out 0.00013253
3 *44:6 0.00013253
4 *44:6 *89:6 0
*RES
1 *474:out *44:6 41.4904 
2 *44:6 *475:in 38 
*END

*D_NET *45 0.00026506
*CONN
*I *476:in I *D sky130_mm_sc_hd_dlyPoly6ns
*I *475:out O *D sky130_mm_sc_hd_dlyPoly6ns
*CAP
1 *476:in 0
2 *475:out 0.00013253
3 *45:6 0.00013253
4 *45:6 *70:10 0
5 *45:6 *78:6 0
*RES
1 *475:out *45:6 41.4904 
2 *45:6 *476:in 38 
*END

*D_NET *46 0.000900411
*CONN
*I *477:in I *D sky130_mm_sc_hd_dlyPoly6ns
*I *476:out O *D sky130_mm_sc_hd_dlyPoly6ns
*CAP
1 *477:in 0
2 *476:out 0.000108207
3 *46:14 0.000341999
4 *46:8 0.000450206
5 *46:8 *82:12 0
6 *46:14 *76:8 0
7 *46:14 *79:12 0
*RES
1 *476:out *46:8 40.8171 
2 *46:8 *46:14 38.5757 
3 *46:14 *477:in 38 
*END

*D_NET *47 0.00738058
*CONN
*I *443:B1_N I *D sky130_fd_sc_hd__o21ba_2
*I *468:out O *D sky130_mm_sc_hd_dlyPoly6ns
*CAP
1 *443:B1_N 0
2 *468:out 9.2417e-05
3 *47:12 0.000954845
4 *47:9 0.00359787
5 *47:8 0.00264303
6 *47:6 9.2417e-05
7 *47:6 *72:10 0
8 *47:9 *72:18 0
9 *47:9 *84:22 0
10 *47:9 *95:9 0
11 *47:9 *96:11 0
12 *47:12 *75:18 0
13 *6:10 *47:12 0
14 *37:6 *47:12 0
*RES
1 *468:out *47:6 40.4339 
2 *47:6 *47:8 15 
3 *47:8 *47:9 63.9864 
4 *47:9 *47:12 40.1471 
5 *47:12 *443:B1_N 38 
*END

*D_NET *48 0.000184834
*CONN
*I *478:in I *D sky130_mm_sc_hd_dlyPoly6ns
*I *494:out O *D sky130_mm_sc_hd_dlyPoly6ns
*CAP
1 *478:in 0
2 *494:out 9.2417e-05
3 *48:6 9.2417e-05
4 *48:6 *76:8 0
5 *48:6 *81:16 0
*RES
1 *494:out *48:6 40.4339 
2 *48:6 *478:in 38 
*END

*D_NET *49 0.000316398
*CONN
*I *479:in I *D sky130_mm_sc_hd_dlyPoly6ns
*I *478:out O *D sky130_mm_sc_hd_dlyPoly6ns
*CAP
1 *479:in 2.56688e-05
2 *478:out 0.00013253
3 *49:6 0.000158199
4 *49:6 *70:10 0
5 *49:6 *89:6 0
*RES
1 *478:out *49:6 41.4904 
2 *49:6 *479:in 38.6214 
*END

*D_NET *50 0.000184834
*CONN
*I *480:in I *D sky130_mm_sc_hd_dlyPoly6ns
*I *479:out O *D sky130_mm_sc_hd_dlyPoly6ns
*CAP
1 *480:in 0
2 *479:out 9.2417e-05
3 *50:6 9.2417e-05
4 *50:6 *90:10 0
5 *50:6 *91:10 0
*RES
1 *479:out *50:6 40.4339 
2 *50:6 *480:in 38 
*END

*D_NET *51 0.000828062
*CONN
*I *481:in I *D sky130_mm_sc_hd_dlyPoly6ns
*I *480:out O *D sky130_mm_sc_hd_dlyPoly6ns
*CAP
1 *481:in 0.000281501
2 *480:out 0.00013253
3 *51:6 0.000414031
4 *51:6 *89:6 0
*RES
1 *480:out *51:6 41.4904 
2 *51:6 *481:in 44.815 
*END

*D_NET *52 0.00060805
*CONN
*I *482:in I *D sky130_mm_sc_hd_dlyPoly6ns
*I *481:out O *D sky130_mm_sc_hd_dlyPoly6ns
*CAP
1 *482:in 0
2 *481:out 0.000304025
3 *52:16 0.000304025
4 *52:16 *54:6 0
*RES
1 *481:out *52:16 45.7886 
2 *52:16 *482:in 38 
*END

*D_NET *53 0.000503591
*CONN
*I *483:in I *D sky130_mm_sc_hd_dlyPoly6ns
*I *482:out O *D sky130_mm_sc_hd_dlyPoly6ns
*CAP
1 *483:in 2.56688e-05
2 *482:out 0.000226127
3 *53:6 0.000251796
4 *53:6 *55:8 0
5 *53:6 *55:16 0
*RES
1 *482:out *53:6 43.9554 
2 *53:6 *483:in 38.6214 
*END

*D_NET *54 0.000612627
*CONN
*I *484:in I *D sky130_mm_sc_hd_dlyPoly6ns
*I *483:out O *D sky130_mm_sc_hd_dlyPoly6ns
*CAP
1 *484:in 0
2 *483:out 0.000306313
3 *54:6 0.000306313
4 *11:12 *54:6 0
5 *52:16 *54:6 0
*RES
1 *483:out *54:6 46.0682 
2 *54:6 *484:in 38 
*END

*D_NET *55 0.00168292
*CONN
*I *485:in I *D sky130_mm_sc_hd_dlyPoly6ns
*I *484:out O *D sky130_mm_sc_hd_dlyPoly6ns
*CAP
1 *485:in 0
2 *484:out 0.000269091
3 *55:16 0.000572369
4 *55:8 0.00084146
5 *11:6 *55:16 0
6 *11:12 *55:16 0
7 *53:6 *55:8 0
8 *53:6 *55:16 0
*RES
1 *484:out *55:8 45.105 
2 *55:8 *55:16 44.6554 
3 *55:16 *485:in 38 
*END

*D_NET *56 0.00626671
*CONN
*I *486:in I *D sky130_mm_sc_hd_dlyPoly6ns
*I *443:X O *D sky130_fd_sc_hd__o21ba_2
*CAP
1 *486:in 0
2 *443:X 0.000419257
3 *56:17 0.00129473
4 *56:13 0.0027141
5 *56:7 0.00183862
6 *56:13 *57:12 0
7 *56:13 *94:10 0
8 *56:17 *69:12 0
9 *56:17 *74:12 0
10 *34:6 *56:13 0
*RES
1 *443:X *56:7 48.15 
2 *56:7 *56:13 25.9265 
3 *56:13 *56:17 49.0439 
4 *56:17 *486:in 23 
*END

*D_NET *57 0.00659967
*CONN
*I *487:in I *D sky130_mm_sc_hd_dlyPoly6ns
*I *486:out O *D sky130_mm_sc_hd_dlyPoly6ns
*CAP
1 *487:in 0
2 *486:out 0.000112434
3 *57:12 0.001483
4 *57:11 0.0031874
5 *57:8 0.00181684
6 *57:8 *81:16 0
7 *57:8 *99:20 0
8 *57:11 *69:9 0
9 *57:11 *97:7 0
10 *57:11 *99:20 0
11 *57:12 *59:10 0
12 *57:12 *94:10 0
13 *455:in *57:12 0
14 *23:9 *57:11 0
15 *23:15 *57:12 0
16 *34:6 *57:12 0
17 *36:6 *57:12 0
18 *56:13 *57:12 0
*RES
1 *486:out *57:8 48.9621 
2 *57:8 *57:11 15.3547 
3 *57:11 *57:12 39.0568 
4 *57:12 *487:in 38 
*END

*D_NET *58 0.000853383
*CONN
*I *488:in I *D sky130_mm_sc_hd_dlyPoly6ns