*SPEF "ieee 1481-1999"
*DESIGN "adc_clkgen_with_edgedetect"
*DATE "11:11:11 Fri 11 11, 1111"
*VENDOR "OpenRCX"
*PROGRAM "Parallel Extraction"
*VERSION "1.0"
*DESIGN_FLOW "NAME_SCOPE LOCAL" "PIN_CAP NONE"
*DIVIDER /
*DELIMITER :
*BUS_DELIMITER []
*T_UNIT 1 NS
*C_UNIT 1 PF
*R_UNIT 1 OHM
*L_UNIT 1 HENRY

*NAME_MAP
*3 clk_comp
*4 clk_dig
*5 comp_trig
*6 ena_in
*7 start_conv
*10 _0_
*11 clkgen\.clk_comp
*12 clkgen\.clk_dig
*13 clkgen\.comp_trig
*14 clkgen\.comp_trig_delayed
*15 clkgen\.delay_100ns_1\._intsig_a_\[10\]
*16 clkgen\.delay_100ns_1\._intsig_a_\[11\]
*17 clkgen\.delay_100ns_1\._intsig_a_\[12\]
*18 clkgen\.delay_100ns_1\._intsig_a_\[13\]
*19 clkgen\.delay_100ns_1\._intsig_a_\[14\]
*20 clkgen\.delay_100ns_1\._intsig_a_\[15\]
*21 clkgen\.delay_100ns_1\._intsig_a_\[16\]
*22 clkgen\.delay_100ns_1\._intsig_a_\[17\]
*23 clkgen\.delay_100ns_1\._intsig_a_\[2\]
*24 clkgen\.delay_100ns_1\._intsig_a_\[3\]
*25 clkgen\.delay_100ns_1\._intsig_a_\[4\]
*26 clkgen\.delay_100ns_1\._intsig_a_\[5\]
*27 clkgen\.delay_100ns_1\._intsig_a_\[6\]
*28 clkgen\.delay_100ns_1\._intsig_a_\[7\]
*29 clkgen\.delay_100ns_1\._intsig_a_\[8\]
*30 clkgen\.delay_100ns_1\._intsig_a_\[9\]
*31 clkgen\.delay_100ns_2\._intsig_a_\[10\]
*32 clkgen\.delay_100ns_2\._intsig_a_\[11\]
*33 clkgen\.delay_100ns_2\._intsig_a_\[12\]
*34 clkgen\.delay_100ns_2\._intsig_a_\[13\]
*35 clkgen\.delay_100ns_2\._intsig_a_\[14\]
*36 clkgen\.delay_100ns_2\._intsig_a_\[15\]
*37 clkgen\.delay_100ns_2\._intsig_a_\[16\]
*38 clkgen\.delay_100ns_2\._intsig_a_\[17\]
*39 clkgen\.delay_100ns_2\._intsig_a_\[2\]
*40 clkgen\.delay_100ns_2\._intsig_a_\[3\]
*41 clkgen\.delay_100ns_2\._intsig_a_\[4\]
*42 clkgen\.delay_100ns_2\._intsig_a_\[5\]
*43 clkgen\.delay_100ns_2\._intsig_a_\[6\]
*44 clkgen\.delay_100ns_2\._intsig_a_\[7\]
*45 clkgen\.delay_100ns_2\._intsig_a_\[8\]
*46 clkgen\.delay_100ns_2\._intsig_a_\[9\]
*47 clkgen\.delay_100ns_2\.out
*48 clkgen\.delay_100ns_3\._intsig_a_\[10\]
*49 clkgen\.delay_100ns_3\._intsig_a_\[11\]
*50 clkgen\.delay_100ns_3\._intsig_a_\[12\]
*51 clkgen\.delay_100ns_3\._intsig_a_\[13\]
*52 clkgen\.delay_100ns_3\._intsig_a_\[14\]
*53 clkgen\.delay_100ns_3\._intsig_a_\[15\]
*54 clkgen\.delay_100ns_3\._intsig_a_\[16\]
*55 clkgen\.delay_100ns_3\._intsig_a_\[17\]
*56 clkgen\.delay_100ns_3\._intsig_a_\[1\]
*57 clkgen\.delay_100ns_3\._intsig_a_\[2\]
*58 clkgen\.delay_100ns_3\._intsig_a_\[3\]
*59 clkgen\.delay_100ns_3\._intsig_a_\[4\]
*60 clkgen\.delay_100ns_3\._intsig_a_\[5\]
*61 clkgen\.delay_100ns_3\._intsig_a_\[6\]
*62 clkgen\.delay_100ns_3\._intsig_a_\[7\]
*63 clkgen\.delay_100ns_3\._intsig_a_\[8\]
*64 clkgen\.delay_100ns_3\._intsig_a_\[9\]
*65 edgedetect\.delay_200ns\._intsig_a_\[10\]
*66 edgedetect\.delay_200ns\._intsig_a_\[11\]
*67 edgedetect\.delay_200ns\._intsig_a_\[12\]
*68 edgedetect\.delay_200ns\._intsig_a_\[13\]
*69 edgedetect\.delay_200ns\._intsig_a_\[14\]
*70 edgedetect\.delay_200ns\._intsig_a_\[15\]
*71 edgedetect\.delay_200ns\._intsig_a_\[16\]
*72 edgedetect\.delay_200ns\._intsig_a_\[17\]
*73 edgedetect\.delay_200ns\._intsig_a_\[18\]
*74 edgedetect\.delay_200ns\._intsig_a_\[19\]
*75 edgedetect\.delay_200ns\._intsig_a_\[1\]
*76 edgedetect\.delay_200ns\._intsig_a_\[20\]
*77 edgedetect\.delay_200ns\._intsig_a_\[21\]
*78 edgedetect\.delay_200ns\._intsig_a_\[22\]
*79 edgedetect\.delay_200ns\._intsig_a_\[23\]
*80 edgedetect\.delay_200ns\._intsig_a_\[24\]
*81 edgedetect\.delay_200ns\._intsig_a_\[25\]
*82 edgedetect\.delay_200ns\._intsig_a_\[26\]
*83 edgedetect\.delay_200ns\._intsig_a_\[27\]
*84 edgedetect\.delay_200ns\._intsig_a_\[28\]
*85 edgedetect\.delay_200ns\._intsig_a_\[29\]
*86 edgedetect\.delay_200ns\._intsig_a_\[2\]
*87 edgedetect\.delay_200ns\._intsig_a_\[30\]
*88 edgedetect\.delay_200ns\._intsig_a_\[31\]
*89 edgedetect\.delay_200ns\._intsig_a_\[32\]
*90 edgedetect\.delay_200ns\._intsig_a_\[33\]
*91 edgedetect\.delay_200ns\._intsig_a_\[34\]
*92 edgedetect\.delay_200ns\._intsig_a_\[3\]
*93 edgedetect\.delay_200ns\._intsig_a_\[4\]
*94 edgedetect\.delay_200ns\._intsig_a_\[5\]
*95 edgedetect\.delay_200ns\._intsig_a_\[6\]
*96 edgedetect\.delay_200ns\._intsig_a_\[7\]
*97 edgedetect\.delay_200ns\._intsig_a_\[8\]
*98 edgedetect\.delay_200ns\._intsig_a_\[9\]
*99 edgedetect\.delay_200ns\.out
*100 edgedetect\.ena_in
*101 FILLER_0_121
*102 FILLER_0_125
*103 FILLER_0_15
*104 FILLER_0_152
*105 FILLER_0_156
*106 FILLER_0_183
*107 FILLER_0_187
*108 FILLER_0_214
*109 FILLER_0_218
*110 FILLER_0_245
*111 FILLER_0_249
*112 FILLER_0_27
*113 FILLER_0_276
*114 FILLER_0_280
*115 FILLER_0_3
*116 FILLER_0_307
*117 FILLER_0_311
*118 FILLER_0_32
*119 FILLER_0_323
*120 FILLER_0_331
*121 FILLER_0_339
*122 FILLER_0_59
*123 FILLER_0_63
*124 FILLER_0_90
*125 FILLER_0_94
*126 FILLER_1_119
*127 FILLER_1_123
*128 FILLER_1_125
*129 FILLER_1_15
*130 FILLER_1_152
*131 FILLER_1_156
*132 FILLER_1_182
*133 FILLER_1_187
*134 FILLER_1_191
*135 FILLER_1_217
*136 FILLER_1_246
*137 FILLER_1_249
*138 FILLER_1_27
*139 FILLER_1_276
*140 FILLER_1_3
*141 FILLER_1_305
*142 FILLER_1_309
*143 FILLER_1_311
*144 FILLER_1_340
*145 FILLER_1_53
*146 FILLER_1_61
*147 FILLER_1_63
*148 FILLER_1_90
*149 FILLER_2_106
*150 FILLER_2_118
*151 FILLER_2_147
*152 FILLER_2_156
*153 FILLER_2_168
*154 FILLER_2_174
*155 FILLER_2_18
*156 FILLER_2_200
*157 FILLER_2_212
*158 FILLER_2_216
*159 FILLER_2_218
*160 FILLER_2_226
*161 FILLER_2_253
*162 FILLER_2_265
*163 FILLER_2_277
*164 FILLER_2_280
*165 FILLER_2_29
*166 FILLER_2_3
*167 FILLER_2_307
*168 FILLER_2_32
*169 FILLER_2_336
*170 FILLER_2_340
*171 FILLER_2_59
*172 FILLER_2_65
*173 FILLER_2_91
*174 FILLER_2_94
*175 FILLER_3_112
*176 FILLER_3_125
*177 FILLER_3_137
*178 FILLER_3_165
*179 FILLER_3_177
*180 FILLER_3_185
*181 FILLER_3_187
*182 FILLER_3_199
*183 FILLER_3_207
*184 FILLER_3_235
*185 FILLER_3_247
*186 FILLER_3_249
*187 FILLER_3_261
*188 FILLER_3_288
*189 FILLER_3_3
*190 FILLER_3_300
*191 FILLER_3_308
*192 FILLER_3_31
*193 FILLER_3_311
*194 FILLER_3_338
*195 FILLER_3_60
*196 FILLER_3_63
*197 FILLER_3_75
*198 FILLER_4_102
*199 FILLER_4_13
*200 FILLER_4_130
*201 FILLER_4_142
*202 FILLER_4_154
*203 FILLER_4_156
*204 FILLER_4_183
*205 FILLER_4_212
*206 FILLER_4_216
*207 FILLER_4_218
*208 FILLER_4_245
*209 FILLER_4_25
*210 FILLER_4_274
*211 FILLER_4_278
*212 FILLER_4_280
*213 FILLER_4_3
*214 FILLER_4_307
*215 FILLER_4_32
*216 FILLER_4_336
*217 FILLER_4_340
*218 FILLER_4_46
*219 FILLER_4_54
*220 FILLER_4_81
*221 FILLER_4_9
*222 FILLER_4_94
*223 FILLER_5_106
*224 FILLER_5_118
*225 FILLER_5_125
*226 FILLER_5_15
*227 FILLER_5_152
*228 FILLER_5_181
*229 FILLER_5_185
*230 FILLER_5_187
*231 FILLER_5_214
*232 FILLER_5_243
*233 FILLER_5_247
*234 FILLER_5_249
*235 FILLER_5_27
*236 FILLER_5_276
*237 FILLER_5_3
*238 FILLER_5_305
*239 FILLER_5_309
*240 FILLER_5_31
*241 FILLER_5_311
*242 FILLER_5_323
*243 FILLER_5_335
*244 FILLER_5_341
*245 FILLER_5_57
*246 FILLER_5_61
*247 FILLER_5_63
*248 FILLER_5_75
*249 FILLER_6_121
*250 FILLER_6_15
*251 FILLER_6_150
*252 FILLER_6_154
*253 FILLER_6_156
*254 FILLER_6_183
*255 FILLER_6_212
*256 FILLER_6_216
*257 FILLER_6_218
*258 FILLER_6_245
*259 FILLER_6_27
*260 FILLER_6_274
*261 FILLER_6_278
*262 FILLER_6_280
*263 FILLER_6_3
*264 FILLER_6_307
*265 FILLER_6_319
*266 FILLER_6_32
*267 FILLER_6_331
*268 FILLER_6_339
*269 FILLER_6_36
*270 FILLER_6_62
*271 FILLER_6_91
*272 FILLER_6_94
*273 FILLER_7_113
*274 FILLER_7_122
*275 FILLER_7_125
*276 FILLER_7_152
*277 FILLER_7_181
*278 FILLER_7_185
*279 FILLER_7_187
*280 FILLER_7_214
*281 FILLER_7_243
*282 FILLER_7_247
*283 FILLER_7_249
*284 FILLER_7_276
*285 FILLER_7_3
*286 FILLER_7_305
*287 FILLER_7_309
*288 FILLER_7_31
*289 FILLER_7_311
*290 FILLER_7_323
*291 FILLER_7_335
*292 FILLER_7_341
*293 FILLER_7_60
*294 FILLER_7_63
*295 FILLER_7_75
*296 FILLER_7_87
*297 FILLER_8_11
*298 FILLER_8_121
*299 FILLER_8_150
*300 FILLER_8_154
*301 FILLER_8_156
*302 FILLER_8_18
*303 FILLER_8_183
*304 FILLER_8_212
*305 FILLER_8_216
*306 FILLER_8_218
*307 FILLER_8_245
*308 FILLER_8_274
*309 FILLER_8_278
*310 FILLER_8_280
*311 FILLER_8_3
*312 FILLER_8_30
*313 FILLER_8_307
*314 FILLER_8_319
*315 FILLER_8_32
*316 FILLER_8_331
*317 FILLER_8_339
*318 FILLER_8_36
*319 FILLER_8_62
*320 FILLER_8_91
*321 FILLER_8_94
*322 FILLER_9_121
*323 FILLER_9_125
*324 FILLER_9_15
*325 FILLER_9_152
*326 FILLER_9_156
*327 FILLER_9_183
*328 FILLER_9_187
*329 FILLER_9_214
*330 FILLER_9_218
*331 FILLER_9_245
*332 FILLER_9_249
*333 FILLER_9_27
*334 FILLER_9_276
*335 FILLER_9_280
*336 FILLER_9_3
*337 FILLER_9_307
*338 FILLER_9_311
*339 FILLER_9_32
*340 FILLER_9_323
*341 FILLER_9_335
*342 FILLER_9_59
*343 FILLER_9_63
*344 FILLER_9_90
*345 FILLER_9_94
*346 PHY_0
*347 PHY_1
*348 PHY_10
*349 PHY_11
*350 PHY_12
*351 PHY_13
*352 PHY_14
*353 PHY_15
*354 PHY_16
*355 PHY_17
*356 PHY_18
*357 PHY_19
*358 PHY_2
*359 PHY_3
*360 PHY_4
*361 PHY_5
*362 PHY_6
*363 PHY_7
*364 PHY_8
*365 PHY_9
*366 TAP_20
*367 TAP_21
*368 TAP_22
*369 TAP_23
*370 TAP_24
*371 TAP_25
*372 TAP_26
*373 TAP_27
*374 TAP_28
*375 TAP_29
*376 TAP_30
*377 TAP_31
*378 TAP_32
*379 TAP_33
*380 TAP_34
*381 TAP_35
*382 TAP_36
*383 TAP_37
*384 TAP_38
*385 TAP_39
*386 TAP_40
*387 TAP_41
*388 TAP_42
*389 TAP_43
*390 TAP_44
*391 TAP_45
*392 TAP_46
*393 TAP_47
*394 TAP_48
*395 TAP_49
*396 TAP_50
*397 TAP_51
*398 TAP_52
*399 TAP_53
*400 TAP_54
*401 TAP_55
*402 TAP_56
*403 TAP_57
*404 TAP_58
*405 TAP_59
*406 TAP_60
*407 TAP_61
*408 TAP_62
*409 TAP_63
*410 TAP_64
*411 TAP_65
*412 TAP_66
*413 TAP_67
*414 TAP_68
*415 TAP_69
*416 TAP_70
*417 TAP_71
*418 TAP_72
*419 TAP_73
*420 TAP_74
*421 TAP_75
*422 TAP_76
*423 TAP_77
*424 TAP_78
*425 TAP_79
*426 TAP_80
*427 TAP_81
*428 TAP_82
*429 TAP_83
*430 TAP_84
*431 TAP_85
*432 _1_
*433 _2_
*434 _3_
*435 clkgen\.delay_100ns_1\.genblk1\[10\]\.delay_unit
*436 clkgen\.delay_100ns_1\.genblk1\[11\]\.delay_unit
*437 clkgen\.delay_100ns_1\.genblk1\[12\]\.delay_unit
*438 clkgen\.delay_100ns_1\.genblk1\[13\]\.delay_unit
*439 clkgen\.delay_100ns_1\.genblk1\[14\]\.delay_unit
*440 clkgen\.delay_100ns_1\.genblk1\[15\]\.delay_unit
*441 clkgen\.delay_100ns_1\.genblk1\[16\]\.delay_unit
*442 clkgen\.delay_100ns_1\.genblk1\[17\]\.delay_unit
*443 clkgen\.delay_100ns_1\.genblk1\[1\]\.delay_unit
*444 clkgen\.delay_100ns_1\.genblk1\[2\]\.delay_unit
*445 clkgen\.delay_100ns_1\.genblk1\[3\]\.delay_unit
*446 clkgen\.delay_100ns_1\.genblk1\[4\]\.delay_unit
*447 clkgen\.delay_100ns_1\.genblk1\[5\]\.delay_unit
*448 clkgen\.delay_100ns_1\.genblk1\[6\]\.delay_unit
*449 clkgen\.delay_100ns_1\.genblk1\[7\]\.delay_unit
*450 clkgen\.delay_100ns_1\.genblk1\[8\]\.delay_unit
*451 clkgen\.delay_100ns_1\.genblk1\[9\]\.delay_unit
*452 clkgen\.delay_100ns_2\.genblk1\[10\]\.delay_unit
*453 clkgen\.delay_100ns_2\.genblk1\[11\]\.delay_unit
*454 clkgen\.delay_100ns_2\.genblk1\[12\]\.delay_unit
*455 clkgen\.delay_100ns_2\.genblk1\[13\]\.delay_unit
*456 clkgen\.delay_100ns_2\.genblk1\[14\]\.delay_unit
*457 clkgen\.delay_100ns_2\.genblk1\[15\]\.delay_unit
*458 clkgen\.delay_100ns_2\.genblk1\[16\]\.delay_unit
*459 clkgen\.delay_100ns_2\.genblk1\[17\]\.delay_unit
*460 clkgen\.delay_100ns_2\.genblk1\[1\]\.delay_unit
*461 clkgen\.delay_100ns_2\.genblk1\[2\]\.delay_unit
*462 clkgen\.delay_100ns_2\.genblk1\[3\]\.delay_unit
*463 clkgen\.delay_100ns_2\.genblk1\[4\]\.delay_unit
*464 clkgen\.delay_100ns_2\.genblk1\[5\]\.delay_unit
*465 clkgen\.delay_100ns_2\.genblk1\[6\]\.delay_unit
*466 clkgen\.delay_100ns_2\.genblk1\[7\]\.delay_unit
*467 clkgen\.delay_100ns_2\.genblk1\[8\]\.delay_unit
*468 clkgen\.delay_100ns_2\.genblk1\[9\]\.delay_unit
*469 clkgen\.delay_100ns_3\.genblk1\[10\]\.delay_unit
*470 clkgen\.delay_100ns_3\.genblk1\[11\]\.delay_unit
*471 clkgen\.delay_100ns_3\.genblk1\[12\]\.delay_unit
*472 clkgen\.delay_100ns_3\.genblk1\[13\]\.delay_unit
*473 clkgen\.delay_100ns_3\.genblk1\[14\]\.delay_unit
*474 clkgen\.delay_100ns_3\.genblk1\[15\]\.delay_unit
*475 clkgen\.delay_100ns_3\.genblk1\[16\]\.delay_unit
*476 clkgen\.delay_100ns_3\.genblk1\[17\]\.delay_unit
*477 clkgen\.delay_100ns_3\.genblk1\[1\]\.delay_unit
*478 clkgen\.delay_100ns_3\.genblk1\[2\]\.delay_unit
*479 clkgen\.delay_100ns_3\.genblk1\[3\]\.delay_unit
*480 clkgen\.delay_100ns_3\.genblk1\[4\]\.delay_unit
*481 clkgen\.delay_100ns_3\.genblk1\[5\]\.delay_unit
*482 clkgen\.delay_100ns_3\.genblk1\[6\]\.delay_unit
*483 clkgen\.delay_100ns_3\.genblk1\[7\]\.delay_unit
*484 clkgen\.delay_100ns_3\.genblk1\[8\]\.delay_unit
*485 clkgen\.delay_100ns_3\.genblk1\[9\]\.delay_unit
*486 edgedetect\.delay_200ns\.genblk1\[10\]\.delay_unit
*487 edgedetect\.delay_200ns\.genblk1\[11\]\.delay_unit
*488 edgedetect\.delay_200ns\.genblk1\[12\]\.delay_unit
*489 edgedetect\.delay_200ns\.genblk1\[13\]\.delay_unit
*490 edgedetect\.delay_200ns\.genblk1\[14\]\.delay_unit
*491 edgedetect\.delay_200ns\.genblk1\[15\]\.delay_unit
*492 edgedetect\.delay_200ns\.genblk1\[16\]\.delay_unit
*493 edgedetect\.delay_200ns\.genblk1\[17\]\.delay_unit
*494 edgedetect\.delay_200ns\.genblk1\[18\]\.delay_unit
*495 edgedetect\.delay_200ns\.genblk1\[19\]\.delay_unit
*496 edgedetect\.delay_200ns\.genblk1\[1\]\.delay_unit
*497 edgedetect\.delay_200ns\.genblk1\[20\]\.delay_unit
*498 edgedetect\.delay_200ns\.genblk1\[21\]\.delay_unit
*499 edgedetect\.delay_200ns\.genblk1\[22\]\.delay_unit
*500 edgedetect\.delay_200ns\.genblk1\[23\]\.delay_unit
*501 edgedetect\.delay_200ns\.genblk1\[24\]\.delay_unit
*502 edgedetect\.delay_200ns\.genblk1\[25\]\.delay_unit
*503 edgedetect\.delay_200ns\.genblk1\[26\]\.delay_unit
*504 edgedetect\.delay_200ns\.genblk1\[27\]\.delay_unit
*505 edgedetect\.delay_200ns\.genblk1\[28\]\.delay_unit
*506 edgedetect\.delay_200ns\.genblk1\[29\]\.delay_unit
*507 edgedetect\.delay_200ns\.genblk1\[2\]\.delay_unit
*508 edgedetect\.delay_200ns\.genblk1\[30\]\.delay_unit
*509 edgedetect\.delay_200ns\.genblk1\[31\]\.delay_unit
*510 edgedetect\.delay_200ns\.genblk1\[32\]\.delay_unit
*511 edgedetect\.delay_200ns\.genblk1\[33\]\.delay_unit
*512 edgedetect\.delay_200ns\.genblk1\[34\]\.delay_unit
*513 edgedetect\.delay_200ns\.genblk1\[3\]\.delay_unit
*514 edgedetect\.delay_200ns\.genblk1\[4\]\.delay_unit
*515 edgedetect\.delay_200ns\.genblk1\[5\]\.delay_unit
*516 edgedetect\.delay_200ns\.genblk1\[6\]\.delay_unit
*517 edgedetect\.delay_200ns\.genblk1\[7\]\.delay_unit
*518 edgedetect\.delay_200ns\.genblk1\[8\]\.delay_unit
*519 edgedetect\.delay_200ns\.genblk1\[9\]\.delay_unit
*520 inbuf_1
*521 inbuf_2
*522 inbuf_3
*523 outbuf_1
*524 outbuf_2

*PORTS
clk_comp O
clk_dig O
comp_trig I
ena_in I
start_conv I

*D_NET *3 0.000483832
*CONN
*P clk_comp O
*I *524:X O *D sky130_fd_sc_hd__buf_4
*CAP
1 clk_comp 9.6035e-05
2 *524:X 0.000145881
3 *3:8 0.000241916
4 *3:8 *11:8 0
5 *3:8 *55:9 0
6 *3:8 *86:8 0
*RES
1 *524:X *3:8 49.8425 
2 *3:8 clk_comp 0.4144 
*END

*D_NET *4 0.000227913
*CONN
*P clk_dig O
*I *523:X O *D sky130_fd_sc_hd__buf_4
*CAP
1 clk_dig 0.000113956
2 *523:X 0.000113956
*RES
1 *523:X clk_dig 47.271 
*END

*D_NET *5 0.0100043
*CONN
*P comp_trig I
*I *522:A I *D sky130_fd_sc_hd__buf_1
*CAP
1 comp_trig 0.000933136
2 *522:A 0.00033978
3 *5:17 0.00149488
4 *5:11 0.00372925
5 *5:10 0.00350729
6 *522:A *19:23 0
7 *522:A *33:6 0
8 *522:A *34:12 0
9 *522:A *36:8 0
10 *5:10 *14:6 0
11 *5:10 *39:6 0
12 *5:11 *12:19 0
13 *5:11 *14:9 0
14 *5:17 *12:19 0
15 *5:17 *19:9 0
16 *5:17 *82:11 0
*RES
1 comp_trig *5:10 34.0673 
2 *5:10 *5:11 62.3189 
3 *5:11 *5:17 43.0368 
4 *5:17 *522:A 46.9486 
*END

*D_NET *6 0.000682785
*CONN
*P ena_in I
*I *520:A I *D sky130_fd_sc_hd__buf_1
*CAP
1 ena_in 0.000341392
2 *520:A 0
3 *6:10 0.000341392
*RES
1 ena_in *6:10 27.6862 
2 *6:10 *520:A 23 
*END

*D_NET *7 0.0002966
*CONN
*P start_conv I
*I *521:A I *D sky130_fd_sc_hd__buf_1
*CAP
1 start_conv 0.0001483
2 *521:A 0.0001483
3 *521:A *47:8 0
*RES
1 start_conv *521:A 47.7919 
*END

*D_NET *10 0.00107127
*CONN
*I *433:A2 I *D sky130_fd_sc_hd__o21ba_2
*I *432:X O *D sky130_fd_sc_hd__and2b_2
*CAP
1 *433:A2 0.000242998
2 *432:X 0.000292638
3 *10:8 0.000535636
4 *433:A2 *433:A1 0
5 *433:A2 *47:11 0
6 *10:8 *432:B 0
7 *10:8 *433:A1 0
8 *10:8 *75:8 0
9 *10:8 *100:12 0
*RES
1 *432:X *10:8 45.3743 
2 *10:8 *433:A2 43.8829 
*END

*D_NET *11 0.000387414
*CONN
*I *524:A I *D sky130_fd_sc_hd__buf_4
*I *476:out O *D sky130_mm_sc_hd_dlyPoly6ns
*CAP
1 *524:A 4.53482e-05
2 *476:out 0.000148359
3 *11:8 0.000193707
4 *11:8 *86:8 0
5 *3:8 *11:8 0
*RES
1 *476:out *11:8 41.8736 
2 *11:8 *524:A 39.0979 
*END

*D_NET *12 0.0116323
*CONN
*I *460:in I *D sky130_mm_sc_hd_dlyPoly6ns
*I *523:A I *D sky130_fd_sc_hd__buf_4
*I *434:Y O *D sky130_fd_sc_hd__inv_2
*CAP
1 *460:in 0
2 *523:A 0.000176687
3 *434:Y 0
4 *12:24 0.000219441
5 *12:19 0.00546015
6 *12:18 0.00542004
7 *12:4 0.000356015
8 *12:18 *14:16 0
9 *12:18 *19:6 0
10 *12:19 *14:9 0
11 *12:19 *14:16 0
12 *12:19 *19:9 0
13 *12:19 *82:11 0
14 *12:24 *22:12 0
15 *12:24 *40:8 0
16 *5:11 *12:19 0
17 *5:17 *12:19 0
*RES
1 *434:Y *12:4 23 
2 *12:4 *523:A 27.35 
3 *12:4 *12:18 34.7229 
4 *12:18 *12:19 126.875 
5 *12:19 *12:24 35.7793 
6 *12:24 *460:in 23 
*END

*D_NET *13 0.000357652
*CONN
*I *443:in I *D sky130_mm_sc_hd_dlyPoly6ns
*I *522:X O *D sky130_fd_sc_hd__buf_1
*CAP
1 *443:in 0
2 *522:X 0.000178826
3 *13:7 0.000178826
4 *13:7 *23:22 0
*RES
1 *522:X *13:7 27.3293 
2 *13:7 *443:in 23 
*END

*D_NET *14 0.0118198
*CONN
*I *434:A I *D sky130_fd_sc_hd__inv_2
*I *442:out O *D sky130_mm_sc_hd_dlyPoly6ns
*CAP
1 *434:A 0
2 *442:out 7.90461e-05
3 *14:16 0.00133111
4 *14:9 0.00583085
5 *14:8 0.00449974
6 *14:6 7.90461e-05
7 *14:9 *34:12 0
8 *14:9 *41:12 0
9 *14:9 *44:12 0
10 *14:16 *19:6 0
11 *5:10 *14:6 0
12 *5:11 *14:9 0
13 *12:18 *14:16 0
14 *12:19 *14:9 0
15 *12:19 *14:16 0
*RES
1 *442:out *14:6 40.0818 
2 *14:6 *14:8 15 
3 *14:8 *14:9 109.009 
4 *14:9 *14:16 47.6354 
5 *14:16 *434:A 38 
*END

*D_NET *15 0.000711827
*CONN
*I *435:in I *D sky130_mm_sc_hd_dlyPoly6ns
*I *451:out O *D sky130_mm_sc_hd_dlyPoly6ns
*CAP
1 *435:in 2.56688e-05
2 *451:out 0.000330245
3 *15:12 0.000355914
4 *15:12 *26:6 0
5 *15:12 *29:10 0
*RES
1 *451:out *15:12 46.5343 
2 *15:12 *435:in 38.6214 
*END

*D_NET *16 0.00088799
*CONN
*I *436:in I *D sky130_mm_sc_hd_dlyPoly6ns
*I *435:out O *D sky130_mm_sc_hd_dlyPoly6ns
*CAP
1 *436:in 0
2 *435:out 0.000443995
3 *16:12 0.000443995
4 *16:12 *17:14 0
5 *16:12 *30:6 0
*RES
1 *435:out *16:12 49.8382 
2 *16:12 *436:in 38 
*END

*D_NET *17 0.00178791
*CONN
*I *437:in I *D sky130_mm_sc_hd_dlyPoly6ns
*I *436:out O *D sky130_mm_sc_hd_dlyPoly6ns
*CAP
1 *437:in 2.41857e-05
2 *436:out 9.2417e-05
3 *17:14 0.000801537
4 *17:6 0.000869768
5 *17:14 *47:11 0
6 *17:14 *56:12 0
7 *16:12 *17:14 0
*RES
1 *436:out *17:6 40.4339 
2 *17:6 *17:14 49.9582 
3 *17:14 *437:in 38.6732 
*END

*D_NET *18 0.000817532
*CONN
*I *438:in I *D sky130_mm_sc_hd_dlyPoly6ns
*I *437:out O *D sky130_mm_sc_hd_dlyPoly6ns
*CAP
1 *438:in 0
2 *437:out 0.000408766
3 *18:12 0.000408766
*RES
1 *437:out *18:12 48.44 
2 *18:12 *438:in 38 
*END

*D_NET *19 0.00696095
*CONN
*I *439:in I *D sky130_mm_sc_hd_dlyPoly6ns
*I *438:out O *D sky130_mm_sc_hd_dlyPoly6ns
*CAP
1 *439:in 2.0535e-05
2 *438:out 0.000319704
3 *19:23 0.000793252
4 *19:9 0.00314023
5 *19:8 0.00236752
6 *19:6 0.000319704
7 *19:23 *453:in 0
8 *19:23 *34:6 0
9 *19:23 *82:6 0
10 *522:A *19:23 0
11 *5:17 *19:9 0
12 *12:18 *19:6 0
13 *12:19 *19:9 0
14 *14:16 *19:6 0
*RES
1 *438:out *19:6 46.4204 
2 *19:6 *19:8 15 
3 *19:8 *19:9 57.3164 
4 *19:9 *19:23 49.8443 
5 *19:23 *439:in 23.4971 
*END

*D_NET *20 0.00180612
*CONN
*I *440:in I *D sky130_mm_sc_hd_dlyPoly6ns
*I *439:out O *D sky130_mm_sc_hd_dlyPoly6ns
*CAP
1 *440:in 0
2 *439:out 0.000376026
3 *20:25 0.000527036
4 *20:16 0.000903062
5 *20:16 *73:10 0
6 *20:25 *74:11 0
7 *20:25 *77:9 0
8 *20:25 *80:17 0
*RES
1 *439:out *20:16 47.4354 
2 *20:16 *20:25 36.4027 
3 *20:25 *440:in 23 
*END

*D_NET *21 0.000379042
*CONN
*I *441:in I *D sky130_mm_sc_hd_dlyPoly6ns
*I *440:out O *D sky130_mm_sc_hd_dlyPoly6ns
*CAP
1 *441:in 0
2 *440:out 0.000189521
3 *21:9 0.000189521
*RES
1 *440:out *21:9 27.6607 
2 *21:9 *441:in 23 
*END

*D_NET *22 0.000800145
*CONN
*I *442:in I *D sky130_mm_sc_hd_dlyPoly6ns
*I *441:out O *D sky130_mm_sc_hd_dlyPoly6ns
*CAP
1 *442:in 2.56688e-05
2 *441:out 0.000374404
3 *22:12 0.000400073
4 *12:24 *22:12 0
*RES
1 *441:out *22:12 47.4043 
2 *22:12 *442:in 38.6214 
*END

*D_NET *23 0.00174138
*CONN
*I *444:in I *D sky130_mm_sc_hd_dlyPoly6ns
*I *443:out O *D sky130_mm_sc_hd_dlyPoly6ns
*CAP
1 *444:in 0
2 *443:out 9.2417e-05
3 *23:22 0.000413654
4 *23:16 0.000778271
5 *23:6 0.000457034
6 *23:22 *36:8 0
7 *23:22 *85:12 0
8 *13:7 *23:22 0
*RES
1 *443:out *23:6 40.4339 
2 *23:6 *23:16 39.1143 
3 *23:16 *23:22 40.2536 
4 *23:22 *444:in 38 
*END

*D_NET *24 0.000184834
*CONN
*I *445:in I *D sky130_mm_sc_hd_dlyPoly6ns
*I *444:out O *D sky130_mm_sc_hd_dlyPoly6ns
*CAP
1 *445:in 0
2 *444:out 9.2417e-05
3 *24:6 9.2417e-05
*RES
1 *444:out *24:6 40.4339 
2 *24:6 *445:in 38 
*END

*D_NET *25 0.000400419
*CONN
*I *446:in I *D sky130_mm_sc_hd_dlyPoly6ns
*I *445:out O *D sky130_mm_sc_hd_dlyPoly6ns
*CAP
1 *446:in 0
2 *445:out 0.00020021
3 *25:14 0.00020021
4 *25:14 *28:12 0
*RES
1 *445:out *25:14 43.1579 
2 *25:14 *446:in 38 
*END

*D_NET *26 0.000452254
*CONN
*I *447:in I *D sky130_mm_sc_hd_dlyPoly6ns
*I *446:out O *D sky130_mm_sc_hd_dlyPoly6ns
*CAP
1 *447:in 0
2 *446:out 0.000226127
3 *26:6 0.000226127
4 *26:6 *28:12 0
5 *15:12 *26:6 0
*RES
1 *446:out *26:6 43.9554 
2 *26:6 *447:in 38 
*END

*D_NET *27 0.000264903
*CONN
*I *448:in I *D sky130_mm_sc_hd_dlyPoly6ns
*I *447:out O *D sky130_mm_sc_hd_dlyPoly6ns
*CAP
1 *448:in 0
2 *447:out 0.000132451
3 *27:6 0.000132451
*RES
1 *447:out *27:6 41.4904 
2 *27:6 *448:in 38 
*END

*D_NET *28 0.00133508
*CONN
*I *449:in I *D sky130_mm_sc_hd_dlyPoly6ns
*I *448:out O *D sky130_mm_sc_hd_dlyPoly6ns
*CAP
1 *449:in 0
2 *448:out 9.10406e-05
3 *28:12 0.0005765
4 *28:6 0.00066754
5 *25:14 *28:12 0
6 *26:6 *28:12 0
*RES
1 *448:out *28:6 40.4339 
2 *28:6 *28:12 44.9971 
3 *28:12 *449:in 38 
*END

*D_NET *29 0.000836325
*CONN
*I *450:in I *D sky130_mm_sc_hd_dlyPoly6ns
*I *449:out O *D sky130_mm_sc_hd_dlyPoly6ns
*CAP
1 *450:in 4.53482e-05
2 *449:out 0.000372814
3 *29:10 0.000418162
4 *15:12 *29:10 0
*RES
1 *449:out *29:10 47.8911 
2 *29:10 *450:in 39.0979 
*END

*D_NET *30 0.00026506
*CONN
*I *451:in I *D sky130_mm_sc_hd_dlyPoly6ns
*I *450:out O *D sky130_mm_sc_hd_dlyPoly6ns
*CAP
1 *451:in 0
2 *450:out 0.00013253
3 *30:6 0.00013253
4 *16:12 *30:6 0
*RES
1 *450:out *30:6 41.4904 
2 *30:6 *451:in 38 
*END

*D_NET *31 0.000216256
*CONN
*I *452:in I *D sky130_mm_sc_hd_dlyPoly6ns
*I *468:out O *D sky130_mm_sc_hd_dlyPoly6ns
*CAP
1 *452:in 0
2 *468:out 0.000108128
3 *31:8 0.000108128
*RES
1 *468:out *31:8 40.8171 
2 *31:8 *452:in 38 
*END

*D_NET *32 0.00106868
*CONN
*I *453:in I *D sky130_mm_sc_hd_dlyPoly6ns
*I *452:out O *D sky130_mm_sc_hd_dlyPoly6ns
*CAP
1 *453:in 8.4707e-05
2 *452:out 0.000449633
3 *32:12 0.00053434
4 *32:12 *81:12 0
5 *32:12 *82:14 0
6 *19:23 *453:in 0
*RES
1 *452:out *32:12 49.6 
2 *32:12 *453:in 40.0507 
*END

*D_NET *33 0.000184755
*CONN
*I *454:in I *D sky130_mm_sc_hd_dlyPoly6ns
*I *453:out O *D sky130_mm_sc_hd_dlyPoly6ns
*CAP
1 *454:in 0
2 *453:out 9.23777e-05
3 *33:6 9.23777e-05
4 *522:A *33:6 0
*RES
1 *453:out *33:6 40.4339 
2 *33:6 *454:in 38 
*END

*D_NET *34 0.00177861
*CONN
*I *455:in I *D sky130_mm_sc_hd_dlyPoly6ns
*I *454:out O *D sky130_mm_sc_hd_dlyPoly6ns
*CAP
1 *455:in 0
2 *454:out 0.000279611
3 *34:12 0.000609694
4 *34:6 0.000889304
5 *34:6 *82:14 0
6 *522:A *34:12 0
7 *14:9 *34:12 0
8 *19:23 *34:6 0
*RES
1 *454:out *34:6 45.3639 
2 *34:6 *34:12 44.9143 
3 *34:12 *455:in 38 
*END

*D_NET *35 0.00026506
*CONN
*I *456:in I *D sky130_mm_sc_hd_dlyPoly6ns
*I *455:out O *D sky130_mm_sc_hd_dlyPoly6ns
*CAP
1 *456:in 0
2 *455:out 0.00013253
3 *35:6 0.00013253
*RES
1 *455:out *35:6 41.4904 
2 *35:6 *456:in 38 
*END

*D_NET *36 0.00146845
*CONN
*I *457:in I *D sky130_mm_sc_hd_dlyPoly6ns
*I *456:out O *D sky130_mm_sc_hd_dlyPoly6ns
*CAP
1 *457:in 0
2 *456:out 0
3 *36:8 0.000734224
4 *36:5 0.000734224
5 *36:8 *60:6 0
6 *36:8 *88:14 0
7 *522:A *36:8 0
8 *23:22 *36:8 0
*RES
1 *456:out *36:5 38 
2 *36:5 *36:8 34.3368 
3 *36:8 *457:in 23 
*END

*D_NET *37 0.000379042
*CONN
*I *458:in I *D sky130_mm_sc_hd_dlyPoly6ns
*I *457:out O *D sky130_mm_sc_hd_dlyPoly6ns
*CAP
1 *458:in 0
2 *457:out 0.000189521
3 *37:9 0.000189521
*RES
1 *457:out *37:9 27.6607 
2 *37:9 *458:in 23 
*END

*D_NET *38 0.00206092
*CONN
*I *459:in I *D sky130_mm_sc_hd_dlyPoly6ns
*I *458:out O *D sky130_mm_sc_hd_dlyPoly6ns
*CAP
1 *459:in 0
2 *458:out 0.000542467
3 *38:25 0.000487994
4 *38:13 0.00103046
5 *38:25 *56:12 0
6 *38:25 *57:6 0
7 *38:25 *91:8 0
*RES
1 *458:out *38:13 36.2779 
2 *38:13 *38:25 42.325 
3 *38:25 *459:in 23 
*END

*D_NET *39 0.000184834
*CONN
*I *461:in I *D sky130_mm_sc_hd_dlyPoly6ns
*I *460:out O *D sky130_mm_sc_hd_dlyPoly6ns
*CAP
1 *461:in 0
2 *460:out 9.2417e-05
3 *39:6 9.2417e-05
4 *5:10 *39:6 0
*RES
1 *460:out *39:6 40.4339 
2 *39:6 *461:in 38 
*END

*D_NET *40 0.000798347
*CONN
*I *462:in I *D sky130_mm_sc_hd_dlyPoly6ns
*I *461:out O *D sky130_mm_sc_hd_dlyPoly6ns
*CAP
1 *462:in 0.00018396
2 *461:out 0.000215214
3 *40:8 0.000399174
4 *12:24 *40:8 0
*RES
1 *461:out *40:8 43.6343 
2 *40:8 *462:in 42.4536 
*END

*D_NET *41 0.00130575
*CONN
*I *463:in I *D sky130_mm_sc_hd_dlyPoly6ns
*I *462:out O *D sky130_mm_sc_hd_dlyPoly6ns
*CAP
1 *463:in 0
2 *462:out 6.56751e-05
3 *41:12 0.000587201
4 *41:6 0.000652876
5 *14:9 *41:12 0
*RES
1 *462:out *41:6 39.7296 
2 *41:6 *41:12 44.8314 
3 *41:12 *463:in 38 
*END

*D_NET *42 0.00086935
*CONN
*I *464:in I *D sky130_mm_sc_hd_dlyPoly6ns
*I *463:out O *D sky130_mm_sc_hd_dlyPoly6ns
*CAP
1 *464:in 0
2 *463:out 0.000434675
3 *42:12 0.000434675
*RES
1 *463:out *42:12 49.0407 
2 *42:12 *464:in 38 
*END

*D_NET *43 0.00045776
*CONN
*I *465:in I *D sky130_mm_sc_hd_dlyPoly6ns
*I *464:out O *D sky130_mm_sc_hd_dlyPoly6ns
*CAP
1 *465:in 0
2 *464:out 0.00022888
3 *43:9 0.00022888
*RES
1 *464:out *43:9 28.6136 
2 *43:9 *465:in 23 
*END

*D_NET *44 0.00175568
*CONN
*I *466:in I *D sky130_mm_sc_hd_dlyPoly6ns
*I *465:out O *D sky130_mm_sc_hd_dlyPoly6ns
*CAP
1 *466:in 2.56688e-05
2 *465:out 6.56751e-05
3 *44:12 0.000812162
4 *44:6 0.000852169
5 *44:12 *495:in 0
6 *44:12 *76:15 0
7 *44:12 *77:14 0
8 *14:9 *44:12 0
*RES
1 *465:out *44:6 39.7296 
2 *44:6 *44:12 49.9064 
3 *44:12 *466:in 38.6214 
*END

*D_NET *45 0.00107058
*CONN
*I *467:in I *D sky130_mm_sc_hd_dlyPoly6ns
*I *466:out O *D sky130_mm_sc_hd_dlyPoly6ns
*CAP
1 *467:in 8.4707e-05
2 *466:out 0.000450584
3 *45:12 0.000535291
4 *45:12 *73:10 0
5 *45:12 *80:17 0
*RES
1 *466:out *45:12 49.7036 
2 *45:12 *467:in 40.0507 
*END

*D_NET *46 0.000763673
*CONN
*I *468:in I *D sky130_mm_sc_hd_dlyPoly6ns
*I *467:out O *D sky130_mm_sc_hd_dlyPoly6ns
*CAP
1 *468:in 0
2 *467:out 0.000381836
3 *46:8 0.000381836
4 *46:8 *81:12 0
5 *46:8 *82:14 0
*RES
1 *467:out *46:8 47.9843 
2 *46:8 *468:in 38 
*END

*D_NET *47 0.00156959
*CONN
*I *433:B1_N I *D sky130_fd_sc_hd__o21ba_2
*I *459:out O *D sky130_mm_sc_hd_dlyPoly6ns
*CAP
1 *433:B1_N 0
2 *459:out 0.000129384
3 *47:11 0.00065541
4 *47:8 0.000784793
5 *47:11 *433:A1 0
6 *47:11 *56:12 0
7 *47:11 *75:8 0
8 *433:A2 *47:11 0
9 *521:A *47:8 0
10 *17:14 *47:11 0
*RES
1 *459:out *47:8 41.4075 
2 *47:8 *47:11 30.8671 
3 *47:11 *433:B1_N 23 
*END

*D_NET *48 0.000184834
*CONN
*I *469:in I *D sky130_mm_sc_hd_dlyPoly6ns
*I *485:out O *D sky130_mm_sc_hd_dlyPoly6ns
*CAP
1 *469:in 0
2 *485:out 9.2417e-05
3 *48:6 9.2417e-05
4 *48:6 *73:10 0
*RES
1 *485:out *48:6 40.4339 
2 *48:6 *469:in 38 
*END

*D_NET *49 0.000425433
*CONN
*I *470:in I *D sky130_mm_sc_hd_dlyPoly6ns
*I *469:out O *D sky130_mm_sc_hd_dlyPoly6ns
*CAP
1 *470:in 0
2 *469:out 0.000212717
3 *49:6 0.000212717
4 *49:6 *72:13 0
*RES
1 *469:out *49:6 43.6032 
2 *49:6 *470:in 38 
*END

*D_NET *50 0.00026506
*CONN
*I *471:in I *D sky130_mm_sc_hd_dlyPoly6ns
*I *470:out O *D sky130_mm_sc_hd_dlyPoly6ns
*CAP
1 *471:in 0
2 *470:out 0.00013253
3 *50:6 0.00013253
4 *50:6 *67:12 0
5 *50:6 *75:63 0
*RES
1 *470:out *50:6 41.4904 
2 *50:6 *471:in 38 
*END

*D_NET *51 0.000314811
*CONN
*I *472:in I *D sky130_mm_sc_hd_dlyPoly6ns
*I *471:out O *D sky130_mm_sc_hd_dlyPoly6ns
*CAP
1 *472:in 6.50276e-05
2 *471:out 9.23777e-05
3 *51:6 0.000157405
4 *472:in *489:in 0
5 *51:6 *66:15 0
6 *51:6 *69:13 0
*RES
1 *471:out *51:6 40.4339 
2 *51:6 *472:in 39.5743 
*END

*D_NET *52 0.000425512
*CONN
*I *473:in I *D sky130_mm_sc_hd_dlyPoly6ns
*I *472:out O *D sky130_mm_sc_hd_dlyPoly6ns
*CAP
1 *473:in 0
2 *472:out 0.000212756
3 *52:6 0.000212756
4 *52:6 *68:12 0
5 *52:6 *96:14 0
6 *52:6 *97:12 0
*RES
1 *472:out *52:6 43.6032 
2 *52:6 *473:in 38 
*END

*D_NET *53 0.00026506
*CONN
*I *474:in I *D sky130_mm_sc_hd_dlyPoly6ns
*I *473:out O *D sky130_mm_sc_hd_dlyPoly6ns
*CAP
1 *474:in 0
2 *473:out 0.00013253
3 *53:6 0.00013253
4 *53:6 *75:78 0
5 *53:6 *94:10 0
*RES
1 *473:out *53:6 41.4904 
2 *53:6 *474:in 38 
*END

*D_NET *54 0.000379042
*CONN
*I *475:in I *D sky130_mm_sc_hd_dlyPoly6ns
*I *474:out O *D sky130_mm_sc_hd_dlyPoly6ns
*CAP
1 *475:in 0
2 *474:out 0.000189521
3 *54:9 0.000189521
*RES
1 *474:out *54:9 27.6607 
2 *54:9 *475:in 23 
*END

*D_NET *55 0.000540108
*CONN
*I *476:in I *D sky130_mm_sc_hd_dlyPoly6ns
*I *475:out O *D sky130_mm_sc_hd_dlyPoly6ns
*CAP
1 *476:in 1.21519e-05
2 *475:out 0.000257902
3 *55:9 0.000270054
4 *55:9 *86:8 0
5 *3:8 *55:9 0
*RES
1 *475:out *55:9 49.0008 
2 *55:9 *476:in 46.3211 
*END

*D_NET *56 0.000686031
*CONN
*I *477:in I *D sky130_mm_sc_hd_dlyPoly6ns
*I *433:X O *D sky130_fd_sc_hd__o21ba_2
*CAP
1 *477:in 0
2 *433:X 0.000343015
3 *56:12 0.000343015
4 *17:14 *56:12 0
5 *38:25 *56:12 0
6 *47:11 *56:12 0
*RES
1 *433:X *56:12 46.845 
2 *56:12 *477:in 38 
*END

*D_NET *57 0.000264981
*CONN
*I *478:in I *D sky130_mm_sc_hd_dlyPoly6ns
*I *477:out O *D sky130_mm_sc_hd_dlyPoly6ns
*CAP
1 *478:in 0
2 *477:out 0.000132491
3 *57:6 0.000132491
4 *57:6 *433:A1 0
5 *38:25 *57:6 0
*RES
1 *477:out *57:6 41.4904 
2 *57:6 *478:in 38 
*END

*D_NET *58 0.00070941
*CONN
*I *479:in I *D sky130_mm_sc_hd_dlyPoly6ns
*I *478:out O *D sky130_mm_sc_hd_dlyPoly6ns
*CAP
1 *479:in 0
2 *478:out 0.000354705
3 *58:12 0.000354705
4 *58:12 *75:31 0