*SPEF "ieee 1481-1999"
*DESIGN "adc_clkgen_with_edgedetect"
*DATE "11:11:11 Fri 11 11, 1111"
*VENDOR "OpenRCX"
*PROGRAM "Parallel Extraction"
*VERSION "1.0"
*DESIGN_FLOW "NAME_SCOPE LOCAL" "PIN_CAP NONE"
*DIVIDER /
*DELIMITER :
*BUS_DELIMITER []
*T_UNIT 1 NS
*C_UNIT 1 PF
*R_UNIT 1 OHM
*L_UNIT 1 HENRY

*NAME_MAP
*3 clk_comp
*4 clk_dig
*5 comp_trig
*6 ena_in
*7 start_conv
*10 _0_
*11 clkgen\.clk_comp
*12 clkgen\.clk_dig
*13 clkgen\.comp_trig
*14 clkgen\.comp_trig_delayed
*15 clkgen\.delay_100ns_1\._intsig_a_\[10\]
*16 clkgen\.delay_100ns_1\._intsig_a_\[11\]
*17 clkgen\.delay_100ns_1\._intsig_a_\[12\]
*18 clkgen\.delay_100ns_1\._intsig_a_\[13\]
*19 clkgen\.delay_100ns_1\._intsig_a_\[14\]
*20 clkgen\.delay_100ns_1\._intsig_a_\[15\]
*21 clkgen\.delay_100ns_1\._intsig_a_\[16\]
*22 clkgen\.delay_100ns_1\._intsig_a_\[17\]
*23 clkgen\.delay_100ns_1\._intsig_a_\[2\]
*24 clkgen\.delay_100ns_1\._intsig_a_\[3\]
*25 clkgen\.delay_100ns_1\._intsig_a_\[4\]
*26 clkgen\.delay_100ns_1\._intsig_a_\[5\]
*27 clkgen\.delay_100ns_1\._intsig_a_\[6\]
*28 clkgen\.delay_100ns_1\._intsig_a_\[7\]
*29 clkgen\.delay_100ns_1\._intsig_a_\[8\]
*30 clkgen\.delay_100ns_1\._intsig_a_\[9\]
*31 clkgen\.delay_100ns_2\._intsig_a_\[10\]
*32 clkgen\.delay_100ns_2\._intsig_a_\[11\]
*33 clkgen\.delay_100ns_2\._intsig_a_\[12\]
*34 clkgen\.delay_100ns_2\._intsig_a_\[13\]
*35 clkgen\.delay_100ns_2\._intsig_a_\[14\]
*36 clkgen\.delay_100ns_2\._intsig_a_\[15\]
*37 clkgen\.delay_100ns_2\._intsig_a_\[16\]
*38 clkgen\.delay_100ns_2\._intsig_a_\[17\]
*39 clkgen\.delay_100ns_2\._intsig_a_\[2\]
*40 clkgen\.delay_100ns_2\._intsig_a_\[3\]
*41 clkgen\.delay_100ns_2\._intsig_a_\[4\]
*42 clkgen\.delay_100ns_2\._intsig_a_\[5\]
*43 clkgen\.delay_100ns_2\._intsig_a_\[6\]
*44 clkgen\.delay_100ns_2\._intsig_a_\[7\]
*45 clkgen\.delay_100ns_2\._intsig_a_\[8\]
*46 clkgen\.delay_100ns_2\._intsig_a_\[9\]
*47 clkgen\.delay_100ns_2\.out
*48 clkgen\.delay_100ns_3\._intsig_a_\[10\]
*49 clkgen\.delay_100ns_3\._intsig_a_\[11\]
*50 clkgen\.delay_100ns_3\._intsig_a_\[12\]
*51 clkgen\.delay_100ns_3\._intsig_a_\[13\]
*52 clkgen\.delay_100ns_3\._intsig_a_\[14\]
*53 clkgen\.delay_100ns_3\._intsig_a_\[15\]
*54 clkgen\.delay_100ns_3\._intsig_a_\[16\]
*55 clkgen\.delay_100ns_3\._intsig_a_\[17\]
*56 clkgen\.delay_100ns_3\._intsig_a_\[1\]
*57 clkgen\.delay_100ns_3\._intsig_a_\[2\]
*58 clkgen\.delay_100ns_3\._intsig_a_\[3\]
*59 clkgen\.delay_100ns_3\._intsig_a_\[4\]
*60 clkgen\.delay_100ns_3\._intsig_a_\[5\]
*61 clkgen\.delay_100ns_3\._intsig_a_\[6\]
*62 clkgen\.delay_100ns_3\._intsig_a_\[7\]
*63 clkgen\.delay_100ns_3\._intsig_a_\[8\]
*64 clkgen\.delay_100ns_3\._intsig_a_\[9\]
*65 edgedetect\.delay_200ns\._intsig_a_\[10\]
*66 edgedetect\.delay_200ns\._intsig_a_\[11\]
*67 edgedetect\.delay_200ns\._intsig_a_\[12\]
*68 edgedetect\.delay_200ns\._intsig_a_\[13\]
*69 edgedetect\.delay_200ns\._intsig_a_\[14\]
*70 edgedetect\.delay_200ns\._intsig_a_\[15\]
*71 edgedetect\.delay_200ns\._intsig_a_\[16\]
*72 edgedetect\.delay_200ns\._intsig_a_\[17\]
*73 edgedetect\.delay_200ns\._intsig_a_\[18\]
*74 edgedetect\.delay_200ns\._intsig_a_\[19\]
*75 edgedetect\.delay_200ns\._intsig_a_\[1\]
*76 edgedetect\.delay_200ns\._intsig_a_\[20\]
*77 edgedetect\.delay_200ns\._intsig_a_\[21\]
*78 edgedetect\.delay_200ns\._intsig_a_\[22\]
*79 edgedetect\.delay_200ns\._intsig_a_\[23\]
*80 edgedetect\.delay_200ns\._intsig_a_\[24\]
*81 edgedetect\.delay_200ns\._intsig_a_\[25\]
*82 edgedetect\.delay_200ns\._intsig_a_\[26\]
*83 edgedetect\.delay_200ns\._intsig_a_\[27\]
*84 edgedetect\.delay_200ns\._intsig_a_\[28\]
*85 edgedetect\.delay_200ns\._intsig_a_\[29\]
*86 edgedetect\.delay_200ns\._intsig_a_\[2\]
*87 edgedetect\.delay_200ns\._intsig_a_\[30\]
*88 edgedetect\.delay_200ns\._intsig_a_\[31\]
*89 edgedetect\.delay_200ns\._intsig_a_\[32\]
*90 edgedetect\.delay_200ns\._intsig_a_\[33\]
*91 edgedetect\.delay_200ns\._intsig_a_\[34\]
*92 edgedetect\.delay_200ns\._intsig_a_\[3\]
*93 edgedetect\.delay_200ns\._intsig_a_\[4\]
*94 edgedetect\.delay_200ns\._intsig_a_\[5\]
*95 edgedetect\.delay_200ns\._intsig_a_\[6\]
*96 edgedetect\.delay_200ns\._intsig_a_\[7\]
*97 edgedetect\.delay_200ns\._intsig_a_\[8\]
*98 edgedetect\.delay_200ns\._intsig_a_\[9\]
*99 edgedetect\.delay_200ns\.out
*100 edgedetect\.ena_in
*101 FILLER_0_121
*102 FILLER_0_125
*103 FILLER_0_15
*104 FILLER_0_152
*105 FILLER_0_156
*106 FILLER_0_183
*107 FILLER_0_187
*108 FILLER_0_214
*109 FILLER_0_218
*110 FILLER_0_245
*111 FILLER_0_249
*112 FILLER_0_27
*113 FILLER_0_276
*114 FILLER_0_280
*115 FILLER_0_3
*116 FILLER_0_307
*117 FILLER_0_311
*118 FILLER_0_32
*119 FILLER_0_323
*120 FILLER_0_331
*121 FILLER_0_339
*122 FILLER_0_59
*123 FILLER_0_63
*124 FILLER_0_90
*125 FILLER_0_94
*126 FILLER_1_119
*127 FILLER_1_123
*128 FILLER_1_125
*129 FILLER_1_15
*130 FILLER_1_152
*131 FILLER_1_156
*132 FILLER_1_182
*133 FILLER_1_187
*134 FILLER_1_191
*135 FILLER_1_217
*136 FILLER_1_246
*137 FILLER_1_249
*138 FILLER_1_27
*139 FILLER_1_276
*140 FILLER_1_3
*141 FILLER_1_305
*142 FILLER_1_309
*143 FILLER_1_311
*144 FILLER_1_340
*145 FILLER_1_53
*146 FILLER_1_61
*147 FILLER_1_63
*148 FILLER_1_90
*149 FILLER_2_106
*150 FILLER_2_118
*151 FILLER_2_147
*152 FILLER_2_156
*153 FILLER_2_168
*154 FILLER_2_174
*155 FILLER_2_18
*156 FILLER_2_200
*157 FILLER_2_212
*158 FILLER_2_216
*159 FILLER_2_218
*160 FILLER_2_226
*161 FILLER_2_253
*162 FILLER_2_265
*163 FILLER_2_277
*164 FILLER_2_280
*165 FILLER_2_29
*166 FILLER_2_3
*167 FILLER_2_307
*168 FILLER_2_32
*169 FILLER_2_336
*170 FILLER_2_340
*171 FILLER_2_59
*172 FILLER_2_65
*173 FILLER_2_91
*174 FILLER_2_94
*175 FILLER_3_112
*176 FILLER_3_125
*177 FILLER_3_137
*178 FILLER_3_165
*179 FILLER_3_177
*180 FILLER_3_185
*181 FILLER_3_187
*182 FILLER_3_199
*183 FILLER_3_207
*184 FILLER_3_235
*185 FILLER_3_247
*186 FILLER_3_249
*187 FILLER_3_261
*188 FILLER_3_288
*189 FILLER_3_3
*190 FILLER_3_300
*191 FILLER_3_308
*192 FILLER_3_31
*193 FILLER_3_311
*194 FILLER_3_338
*195 FILLER_3_60
*196 FILLER_3_63
*197 FILLER_3_75
*198 FILLER_4_102
*199 FILLER_4_13
*200 FILLER_4_130
*201 FILLER_4_142
*202 FILLER_4_154
*203 FILLER_4_156
*204 FILLER_4_183
*205 FILLER_4_212
*206 FILLER_4_216
*207 FILLER_4_218
*208 FILLER_4_245
*209 FILLER_4_25
*210 FILLER_4_274
*211 FILLER_4_278
*212 FILLER_4_280
*213 FILLER_4_3
*214 FILLER_4_307
*215 FILLER_4_32
*216 FILLER_4_336
*217 FILLER_4_340
*218 FILLER_4_46
*219 FILLER_4_54
*220 FILLER_4_81
*221 FILLER_4_9
*222 FILLER_4_94
*223 FILLER_5_106
*224 FILLER_5_118
*225 FILLER_5_125
*226 FILLER_5_15
*227 FILLER_5_152
*228 FILLER_5_181
*229 FILLER_5_185
*230 FILLER_5_187
*231 FILLER_5_214
*232 FILLER_5_243
*233 FILLER_5_247
*234 FILLER_5_249
*235 FILLER_5_27
*236 FILLER_5_276
*237 FILLER_5_3
*238 FILLER_5_305
*239 FILLER_5_309
*240 FILLER_5_31
*241 FILLER_5_311
*242 FILLER_5_323
*243 FILLER_5_335
*244 FILLER_5_341
*245 FILLER_5_57
*246 FILLER_5_61
*247 FILLER_5_63
*248 FILLER_5_75
*249 FILLER_6_121
*250 FILLER_6_15
*251 FILLER_6_150
*252 FILLER_6_154
*253 FILLER_6_156
*254 FILLER_6_183
*255 FILLER_6_212
*256 FILLER_6_216
*257 FILLER_6_218
*258 FILLER_6_245
*259 FILLER_6_27
*260 FILLER_6_274
*261 FILLER_6_278
*262 FILLER_6_280
*263 FILLER_6_3
*264 FILLER_6_307
*265 FILLER_6_319
*266 FILLER_6_32
*267 FILLER_6_331
*268 FILLER_6_339
*269 FILLER_6_36
*270 FILLER_6_62
*271 FILLER_6_91
*272 FILLER_6_94
*273 FILLER_7_113
*274 FILLER_7_122
*275 FILLER_7_125
*276 FILLER_7_152
*277 FILLER_7_181
*278 FILLER_7_185
*279 FILLER_7_187
*280 FILLER_7_214
*281 FILLER_7_243
*282 FILLER_7_247
*283 FILLER_7_249
*284 FILLER_7_276
*285 FILLER_7_3
*286 FILLER_7_305
*287 FILLER_7_309
*288 FILLER_7_31
*289 FILLER_7_311
*290 FILLER_7_323
*291 FILLER_7_335
*292 FILLER_7_341
*293 FILLER_7_60
*294 FILLER_7_63
*295 FILLER_7_75
*296 FILLER_7_87
*297 FILLER_8_11
*298 FILLER_8_121
*299 FILLER_8_150
*300 FILLER_8_154
*301 FILLER_8_156
*302 FILLER_8_18
*303 FILLER_8_183
*304 FILLER_8_212
*305 FILLER_8_216
*306 FILLER_8_218
*307 FILLER_8_245
*308 FILLER_8_274
*309 FILLER_8_278
*310 FILLER_8_280
*311 FILLER_8_3
*312 FILLER_8_30
*313 FILLER_8_307
*314 FILLER_8_319
*315 FILLER_8_32
*316 FILLER_8_331
*317 FILLER_8_339
*318 FILLER_8_36
*319 FILLER_8_62
*320 FILLER_8_91
*321 FILLER_8_94
*322 FILLER_9_121
*323 FILLER_9_125
*324 FILLER_9_15
*325 FILLER_9_152
*326 FILLER_9_156
*327 FILLER_9_183
*328 FILLER_9_187
*329 FILLER_9_214
*330 FILLER_9_218
*331 FILLER_9_245
*332 FILLER_9_249
*333 FILLER_9_27
*334 FILLER_9_276
*335 FILLER_9_280
*336 FILLER_9_3
*337 FILLER_9_307
*338 FILLER_9_311
*339 FILLER_9_32
*340 FILLER_9_323
*341 FILLER_9_335
*342 FILLER_9_59
*343 FILLER_9_63
*344 FILLER_9_90
*345 FILLER_9_94
*346 PHY_0
*347 PHY_1
*348 PHY_10
*349 PHY_11
*350 PHY_12
*351 PHY_13
*352 PHY_14
*353 PHY_15
*354 PHY_16
*355 PHY_17
*356 PHY_18
*357 PHY_19
*358 PHY_2
*359 PHY_3
*360 PHY_4
*361 PHY_5
*362 PHY_6
*363 PHY_7
*364 PHY_8
*365 PHY_9
*366 TAP_20
*367 TAP_21
*368 TAP_22
*369 TAP_23
*370 TAP_24
*371 TAP_25
*372 TAP_26
*373 TAP_27
*374 TAP_28
*375 TAP_29
*376 TAP_30
*377 TAP_31
*378 TAP_32
*379 TAP_33
*380 TAP_34
*381 TAP_35
*382 TAP_36
*383 TAP_37
*384 TAP_38
*385 TAP_39
*386 TAP_40
*387 TAP_41
*388 TAP_42
*389 TAP_43
*390 TAP_44
*391 TAP_45
*392 TAP_46
*393 TAP_47
*394 TAP_48
*395 TAP_49
*396 TAP_50
*397 TAP_51
*398 TAP_52
*399 TAP_53
*400 TAP_54
*401 TAP_55
*402 TAP_56
*403 TAP_57
*404 TAP_58
*405 TAP_59
*406 TAP_60
*407 TAP_61
*408 TAP_62
*409 TAP_63
*410 TAP_64
*411 TAP_65
*412 TAP_66
*413 TAP_67
*414 TAP_68
*415 TAP_69
*416 TAP_70
*417 TAP_71
*418 TAP_72
*419 TAP_73
*420 TAP_74
*421 TAP_75
*422 TAP_76
*423 TAP_77
*424 TAP_78
*425 TAP_79
*426 TAP_80
*427 TAP_81
*428 TAP_82
*429 TAP_83
*430 TAP_84
*431 TAP_85
*432 _1_
*433 _2_
*434 _3_
*435 clkgen\.delay_100ns_1\.genblk1\[10\]\.delay_unit
*436 clkgen\.delay_100ns_1\.genblk1\[11\]\.delay_unit
*437 clkgen\.delay_100ns_1\.genblk1\[12\]\.delay_unit
*438 clkgen\.delay_100ns_1\.genblk1\[13\]\.delay_unit
*439 clkgen\.delay_100ns_1\.genblk1\[14\]\.delay_unit
*440 clkgen\.delay_100ns_1\.genblk1\[15\]\.delay_unit
*441 clkgen\.delay_100ns_1\.genblk1\[16\]\.delay_unit
*442 clkgen\.delay_100ns_1\.genblk1\[17\]\.delay_unit
*443 clkgen\.delay_100ns_1\.genblk1\[1\]\.delay_unit
*444 clkgen\.delay_100ns_1\.genblk1\[2\]\.delay_unit
*445 clkgen\.delay_100ns_1\.genblk1\[3\]\.delay_unit
*446 clkgen\.delay_100ns_1\.genblk1\[4\]\.delay_unit
*447 clkgen\.delay_100ns_1\.genblk1\[5\]\.delay_unit
*448 clkgen\.delay_100ns_1\.genblk1\[6\]\.delay_unit
*449 clkgen\.delay_100ns_1\.genblk1\[7\]\.delay_unit
*450 clkgen\.delay_100ns_1\.genblk1\[8\]\.delay_unit
*451 clkgen\.delay_100ns_1\.genblk1\[9\]\.delay_unit
*452 clkgen\.delay_100ns_2\.genblk1\[10\]\.delay_unit
*453 clkgen\.delay_100ns_2\.genblk1\[11\]\.delay_unit
*454 clkgen\.delay_100ns_2\.genblk1\[12\]\.delay_unit
*455 clkgen\.delay_100ns_2\.genblk1\[13\]\.delay_unit
*456 clkgen\.delay_100ns_2\.genblk1\[14\]\.delay_unit
*457 clkgen\.delay_100ns_2\.genblk1\[15\]\.delay_unit
*458 clkgen\.delay_100ns_2\.genblk1\[16\]\.delay_unit
*459 clkgen\.delay_100ns_2\.genblk1\[17\]\.delay_unit
*460 clkgen\.delay_100ns_2\.genblk1\[1\]\.delay_unit
*461 clkgen\.delay_100ns_2\.genblk1\[2\]\.delay_unit
*462 clkgen\.delay_100ns_2\.genblk1\[3\]\.delay_unit
*463 clkgen\.delay_100ns_2\.genblk1\[4\]\.delay_unit
*464 clkgen\.delay_100ns_2\.genblk1\[5\]\.delay_unit
*465 clkgen\.delay_100ns_2\.genblk1\[6\]\.delay_unit
*466 clkgen\.delay_100ns_2\.genblk1\[7\]\.delay_unit
*467 clkgen\.delay_100ns_2\.genblk1\[8\]\.delay_unit
*468 clkgen\.delay_100ns_2\.genblk1\[9\]\.delay_unit
*469 clkgen\.delay_100ns_3\.genblk1\[10\]\.delay_unit
*470 clkgen\.delay_100ns_3\.genblk1\[11\]\.delay_unit
*471 clkgen\.delay_100ns_3\.genblk1\[12\]\.delay_unit
*472 clkgen\.delay_100ns_3\.genblk1\[13\]\.delay_unit
*473 clkgen\.delay_100ns_3\.genblk1\[14\]\.delay_unit
*474 clkgen\.delay_100ns_3\.genblk1\[15\]\.delay_unit
*475 clkgen\.delay_100ns_3\.genblk1\[16\]\.delay_unit
*476 clkgen\.delay_100ns_3\.genblk1\[17\]\.delay_unit
*477 clkgen\.delay_100ns_3\.genblk1\[1\]\.delay_unit
*478 clkgen\.delay_100ns_3\.genblk1\[2\]\.delay_unit
*479 clkgen\.delay_100ns_3\.genblk1\[3\]\.delay_unit
*480 clkgen\.delay_100ns_3\.genblk1\[4\]\.delay_unit
*481 clkgen\.delay_100ns_3\.genblk1\[5\]\.delay_unit
*482 clkgen\.delay_100ns_3\.genblk1\[6\]\.delay_unit
*483 clkgen\.delay_100ns_3\.genblk1\[7\]\.delay_unit
*484 clkgen\.delay_100ns_3\.genblk1\[8\]\.delay_unit
*485 clkgen\.delay_100ns_3\.genblk1\[9\]\.delay_unit
*486 edgedetect\.delay_200ns\.genblk1\[10\]\.delay_unit
*487 edgedetect\.delay_200ns\.genblk1\[11\]\.delay_unit
*488 edgedetect\.delay_200ns\.genblk1\[12\]\.delay_unit
*489 edgedetect\.delay_200ns\.genblk1\[13\]\.delay_unit
*490 edgedetect\.delay_200ns\.genblk1\[14\]\.delay_unit
*491 edgedetect\.delay_200ns\.genblk1\[15\]\.delay_unit
*492 edgedetect\.delay_200ns\.genblk1\[16\]\.delay_unit
*493 edgedetect\.delay_200ns\.genblk1\[17\]\.delay_unit
*494 edgedetect\.delay_200ns\.genblk1\[18\]\.delay_unit
*495 edgedetect\.delay_200ns\.genblk1\[19\]\.delay_unit
*496 edgedetect\.delay_200ns\.genblk1\[1\]\.delay_unit
*497 edgedetect\.delay_200ns\.genblk1\[20\]\.delay_unit
*498 edgedetect\.delay_200ns\.genblk1\[21\]\.delay_unit
*499 edgedetect\.delay_200ns\.genblk1\[22\]\.delay_unit
*500 edgedetect\.delay_200ns\.genblk1\[23\]\.delay_unit
*501 edgedetect\.delay_200ns\.genblk1\[24\]\.delay_unit
*502 edgedetect\.delay_200ns\.genblk1\[25\]\.delay_unit
*503 edgedetect\.delay_200ns\.genblk1\[26\]\.delay_unit
*504 edgedetect\.delay_200ns\.genblk1\[27\]\.delay_unit
*505 edgedetect\.delay_200ns\.genblk1\[28\]\.delay_unit
*506 edgedetect\.delay_200ns\.genblk1\[29\]\.delay_unit
*507 edgedetect\.delay_200ns\.genblk1\[2\]\.delay_unit
*508 edgedetect\.delay_200ns\.genblk1\[30\]\.delay_unit
*509 edgedetect\.delay_200ns\.genblk1\[31\]\.delay_unit
*510 edgedetect\.delay_200ns\.genblk1\[32\]\.delay_unit
*511 edgedetect\.delay_200ns\.genblk1\[33\]\.delay_unit
*512 edgedetect\.delay_200ns\.genblk1\[34\]\.delay_unit
*513 edgedetect\.delay_200ns\.genblk1\[3\]\.delay_unit
*514 edgedetect\.delay_200ns\.genblk1\[4\]\.delay_unit
*515 edgedetect\.delay_200ns\.genblk1\[5\]\.delay_unit
*516 edgedetect\.delay_200ns\.genblk1\[6\]\.delay_unit
*517 edgedetect\.delay_200ns\.genblk1\[7\]\.delay_unit
*518 edgedetect\.delay_200ns\.genblk1\[8\]\.delay_unit
*519 edgedetect\.delay_200ns\.genblk1\[9\]\.delay_unit
*520 inbuf_1
*521 inbuf_2
*522 inbuf_3
*523 outbuf_1
*524 outbuf_2

*PORTS
clk_comp O
clk_dig O
comp_trig I
ena_in I
start_conv I

*D_NET *3 0.000483832
*CONN
*P clk_comp O
*I *524:X O *D sky130_fd_sc_hd__buf_4
*CAP
1 clk_comp 0.000241916
2 *524:X 0.000241916
3 clk_comp *476:in 0
4 clk_comp *507:in 0
5 clk_comp *524:A 0
*RES
1 *524:X clk_comp 20.8703 
*END

*D_NET *4 0.000227913
*CONN
*P clk_dig O
*I *523:X O *D sky130_fd_sc_hd__buf_4
*CAP
1 clk_dig 0.000113956
2 *523:X 0.000113956
*RES
1 *523:X clk_dig 18.2982 
*END

*D_NET *5 0.0100043
*CONN
*P comp_trig I
*I *522:A I *D sky130_fd_sc_hd__buf_1
*CAP
1 comp_trig 0.000933136
2 *522:A 0
3 *5:20 0.00149488
4 *5:11 0.00406903
5 *5:10 0.00350729
6 *5:10 *461:in 0
7 *5:10 *14:8 0
8 *5:11 *12:19 0
9 *5:11 *14:9 0
10 *5:20 *439:in 0
11 *5:20 *454:in 0
12 *5:20 *457:in 0
13 *5:20 *12:19 0
14 *5:20 *19:9 0
15 *5:20 *34:14 0
16 *5:20 *82:11 0
*RES
1 comp_trig *5:10 17.3905 
2 *5:10 *5:11 53.7232 
3 *5:11 *5:20 40.8839 
4 *5:20 *522:A 9.3 
*END

*D_NET *6 0.000682785
*CONN
*P ena_in I
*I *520:A I *D sky130_fd_sc_hd__buf_1
*CAP
1 ena_in 0.000341392
2 *520:A 0.000341392
*RES
1 ena_in *520:A 21.2306 
*END

*D_NET *7 0.0002966
*CONN
*P start_conv I
*I *521:A I *D sky130_fd_sc_hd__buf_1
*CAP
1 start_conv 0.0001483
2 *521:A 0.0001483
3 *521:A *433:B1_N 0
*RES
1 start_conv *521:A 18.7453 
*END

*D_NET *10 0.00107127
*CONN
*I *433:A2 I *D sky130_fd_sc_hd__o21ba_2
*I *432:X O *D sky130_fd_sc_hd__and2b_2
*CAP
1 *433:A2 0.000535636
2 *432:X 0.000535636
3 *433:A2 *432:B 0
4 *433:A2 *433:A1 0
5 *433:A2 *433:B1_N 0
6 *433:A2 *75:8 0
*RES
1 *432:X *433:A2 39.0286 
*END

*D_NET *11 0.000387414
*CONN
*I *524:A I *D sky130_fd_sc_hd__buf_4
*I *476:out O *D sky130_mm_sc_hd_dlyPoly6ns
*CAP
1 *524:A 0.000193707
2 *476:out 0.000193707
3 *524:A *507:in 0
4 clk_comp *524:A 0
*RES
1 *476:out *524:A 31.8857 
*END

*D_NET *12 0.0116323
*CONN
*I *460:in I *D sky130_mm_sc_hd_dlyPoly6ns
*I *523:A I *D sky130_fd_sc_hd__buf_4
*I *434:Y O *D sky130_fd_sc_hd__inv_2
*CAP
1 *460:in 0.000219441
2 *523:A 0.000176687
3 *434:Y 0
4 *12:19 0.00546015
5 *12:18 0.00542004
6 *12:4 0.000356015
7 *460:in *442:in 0
8 *460:in *462:in 0
9 *12:18 *434:A 0
10 *12:18 *19:8 0
11 *12:19 *434:A 0
12 *12:19 *14:9 0
13 *12:19 *19:9 0
14 *12:19 *82:11 0
15 *5:11 *12:19 0
16 *5:20 *12:19 0
*RES
1 *434:Y *12:4 9.3 
2 *12:4 *523:A 13.05 
3 *12:4 *12:18 13.0714 
4 *12:18 *12:19 109.375 
5 *12:19 *460:in 23.2821 
*END

*D_NET *13 0.000357652
*CONN
*I *443:in I *D sky130_mm_sc_hd_dlyPoly6ns
*I *522:X O *D sky130_fd_sc_hd__buf_1
*CAP
1 *443:in 0.000178826
2 *522:X 0.000178826
3 *443:in *23:21 0
*RES
1 *522:X *443:in 22.3321 
*END

*D_NET *14 0.0118198
*CONN
*I *434:A I *D sky130_fd_sc_hd__inv_2
*I *442:out O *D sky130_mm_sc_hd_dlyPoly6ns
*CAP
1 *434:A 0.00133111
2 *442:out 7.90461e-05
3 *14:9 0.00583085
4 *14:8 0.00457878
5 *434:A *19:8 0
6 *14:9 *34:14 0
7 *14:9 *41:14 0
8 *14:9 *44:15 0
9 *5:10 *14:8 0
10 *5:11 *14:9 0
11 *12:18 *434:A 0
12 *12:19 *434:A 0
13 *12:19 *14:9 0
*RES
1 *442:out *14:8 20.0946 
2 *14:8 *14:9 93.9732 
3 *14:9 *434:A 46.4339 
*END

*D_NET *15 0.000711827
*CONN
*I *435:in I *D sky130_mm_sc_hd_dlyPoly6ns
*I *451:out O *D sky130_mm_sc_hd_dlyPoly6ns
*CAP
1 *435:in 0.000355914
2 *451:out 0.000355914
3 *435:in *447:in 0
4 *435:in *450:in 0
*RES
1 *451:out *435:in 35.4929 
*END

*D_NET *16 0.00088799
*CONN
*I *436:in I *D sky130_mm_sc_hd_dlyPoly6ns
*I *435:out O *D sky130_mm_sc_hd_dlyPoly6ns
*CAP
1 *436:in 0.000443995
2 *435:out 0.000443995
3 *436:in *451:in 0
4 *436:in *17:18 0
*RES
1 *435:out *436:in 37.8054 
*END

*D_NET *17 0.00178791
*CONN
*I *437:in I *D sky130_mm_sc_hd_dlyPoly6ns
*I *436:out O *D sky130_mm_sc_hd_dlyPoly6ns
*CAP
1 *437:in 0
2 *436:out 0.000893954
3 *17:18 0.000893954
4 *17:18 *433:B1_N 0
5 *17:18 *477:in 0
6 *436:in *17:18 0
*RES
1 *436:out *17:18 47.1839 
2 *17:18 *437:in 9.3 
*END

*D_NET *18 0.000817532
*CONN
*I *438:in I *D sky130_mm_sc_hd_dlyPoly6ns
*I *437:out O *D sky130_mm_sc_hd_dlyPoly6ns
*CAP
1 *438:in 0.000408766
2 *437:out 0.000408766
*RES
1 *437:out *438:in 36.6 
*END

*D_NET *19 0.00696095
*CONN
*I *439:in I *D sky130_mm_sc_hd_dlyPoly6ns
*I *438:out O *D sky130_mm_sc_hd_dlyPoly6ns
*CAP
1 *439:in 0.000793252
2 *438:out 0.000319704
3 *19:9 0.00316077
4 *19:8 0.00268722
5 *439:in *453:in 0
6 *439:in *34:14 0
7 *439:in *82:11 0
8 *434:A *19:8 0
9 *5:20 *439:in 0
10 *5:20 *19:9 0
11 *12:18 *19:8 0
12 *12:19 *19:9 0
*RES
1 *438:out *19:8 25.5589 
2 *19:8 *19:9 49.4107 
3 *19:9 *439:in 35.8357 
*END

*D_NET *20 0.00180612
*CONN
*I *440:in I *D sky130_mm_sc_hd_dlyPoly6ns
*I *439:out O *D sky130_mm_sc_hd_dlyPoly6ns
*CAP
1 *440:in 0.000903062
2 *439:out 0.000903062
3 *440:in *494:in 0
4 *440:in *495:in 0
5 *440:in *498:in 0
6 *440:in *501:in 0
*RES
1 *439:out *440:in 47.1749 
*END

*D_NET *21 0.000379042
*CONN
*I *441:in I *D sky130_mm_sc_hd_dlyPoly6ns
*I *440:out O *D sky130_mm_sc_hd_dlyPoly6ns
*CAP
1 *441:in 0.000189521
2 *440:out 0.000189521
*RES
1 *440:out *441:in 22.6179 
*END

*D_NET *22 0.000800145
*CONN
*I *442:in I *D sky130_mm_sc_hd_dlyPoly6ns
*I *441:out O *D sky130_mm_sc_hd_dlyPoly6ns
*CAP
1 *442:in 0.000400073
2 *441:out 0.000400073
3 *460:in *442:in 0
*RES
1 *441:out *442:in 36.2429 
*END

*D_NET *23 0.00174138
*CONN
*I *444:in I *D sky130_mm_sc_hd_dlyPoly6ns
*I *443:out O *D sky130_mm_sc_hd_dlyPoly6ns
*CAP
1 *444:in 0.000112474
2 *443:out 0.000758214
3 *23:21 0.000870688
4 *444:in *457:in 0
5 *444:in *506:in 0
6 *443:in *23:21 0
*RES
1 *443:out *23:21 48.0411 
2 *23:21 *444:in 16.3536 
*END

*D_NET *24 0.000184834
*CONN
*I *445:in I *D sky130_mm_sc_hd_dlyPoly6ns
*I *444:out O *D sky130_mm_sc_hd_dlyPoly6ns
*CAP
1 *445:in 9.2417e-05
2 *444:out 9.2417e-05
*RES
1 *444:out *445:in 29.6982 
*END

*D_NET *25 0.000400419
*CONN
*I *446:in I *D sky130_mm_sc_hd_dlyPoly6ns
*I *445:out O *D sky130_mm_sc_hd_dlyPoly6ns
*CAP
1 *446:in 0.00020021
2 *445:out 0.00020021
3 *446:in *28:14 0
*RES
1 *445:out *446:in 32.0464 
*END

*D_NET *26 0.000452254
*CONN
*I *447:in I *D sky130_mm_sc_hd_dlyPoly6ns
*I *446:out O *D sky130_mm_sc_hd_dlyPoly6ns
*CAP
1 *447:in 0.000226127
2 *446:out 0.000226127
3 *447:in *28:14 0
4 *435:in *447:in 0
*RES
1 *446:out *447:in 32.7339 
*END

*D_NET *27 0.000264903
*CONN
*I *448:in I *D sky130_mm_sc_hd_dlyPoly6ns
*I *447:out O *D sky130_mm_sc_hd_dlyPoly6ns
*CAP
1 *448:in 0.000132451
2 *447:out 0.000132451
*RES
1 *447:out *448:in 30.6089 
*END

*D_NET *28 0.00133508
*CONN
*I *449:in I *D sky130_mm_sc_hd_dlyPoly6ns
*I *448:out O *D sky130_mm_sc_hd_dlyPoly6ns
*CAP
1 *449:in 0
2 *448:out 0.00066754
3 *28:14 0.00066754
4 *446:in *28:14 0
5 *447:in *28:14 0
*RES
1 *448:out *28:14 42.3268 
2 *28:14 *449:in 9.3 
*END

*D_NET *29 0.000836325
*CONN
*I *450:in I *D sky130_mm_sc_hd_dlyPoly6ns
*I *449:out O *D sky130_mm_sc_hd_dlyPoly6ns
*CAP
1 *450:in 0.000418162
2 *449:out 0.000418162
3 *435:in *450:in 0
*RES
1 *449:out *450:in 37.0732 
*END

*D_NET *30 0.00026506
*CONN
*I *451:in I *D sky130_mm_sc_hd_dlyPoly6ns
*I *450:out O *D sky130_mm_sc_hd_dlyPoly6ns
*CAP
1 *451:in 0.00013253
2 *450:out 0.00013253
3 *436:in *451:in 0
*RES
1 *450:out *451:in 30.6089 
*END

*D_NET *31 0.000216256
*CONN
*I *452:in I *D sky130_mm_sc_hd_dlyPoly6ns
*I *468:out O *D sky130_mm_sc_hd_dlyPoly6ns
*CAP
1 *452:in 0.000108128
2 *468:out 0.000108128
*RES
1 *468:out *452:in 30.0286 
*END

*D_NET *32 0.00106868
*CONN
*I *453:in I *D sky130_mm_sc_hd_dlyPoly6ns
*I *452:out O *D sky130_mm_sc_hd_dlyPoly6ns
*CAP
1 *453:in 0.00053434
2 *452:out 0.00053434
3 *453:in *502:in 0
4 *453:in *503:in 0
5 *439:in *453:in 0
*RES
1 *452:out *453:in 39.3679 
*END

*D_NET *33 0.000184755
*CONN
*I *454:in I *D sky130_mm_sc_hd_dlyPoly6ns
*I *453:out O *D sky130_mm_sc_hd_dlyPoly6ns
*CAP
1 *454:in 9.23777e-05
2 *453:out 9.23777e-05
3 *5:20 *454:in 0
*RES
1 *453:out *454:in 29.6982 
*END

*D_NET *34 0.00177861
*CONN
*I *455:in I *D sky130_mm_sc_hd_dlyPoly6ns
*I *454:out O *D sky130_mm_sc_hd_dlyPoly6ns
*CAP
1 *455:in 0
2 *454:out 0.000889304
3 *34:14 0.000889304
4 *34:14 *503:in 0
5 *439:in *34:14 0
6 *5:20 *34:14 0
7 *14:9 *34:14 0
*RES
1 *454:out *34:14 46.5054 
2 *34:14 *455:in 9.3 
*END

*D_NET *35 0.00026506
*CONN
*I *456:in I *D sky130_mm_sc_hd_dlyPoly6ns
*I *455:out O *D sky130_mm_sc_hd_dlyPoly6ns
*CAP
1 *456:in 0.00013253
2 *455:out 0.00013253
*RES
1 *455:out *456:in 30.6089 
*END

*D_NET *36 0.00146845
*CONN
*I *457:in I *D sky130_mm_sc_hd_dlyPoly6ns
*I *456:out O *D sky130_mm_sc_hd_dlyPoly6ns
*CAP
1 *457:in 0.000734224
2 *456:out 0.000734224
3 *457:in *481:in 0
4 *457:in *509:in 0
5 *444:in *457:in 0
6 *5:20 *457:in 0
*RES
1 *456:out *457:in 44.2696 
*END

*D_NET *37 0.000379042
*CONN
*I *458:in I *D sky130_mm_sc_hd_dlyPoly6ns
*I *457:out O *D sky130_mm_sc_hd_dlyPoly6ns
*CAP
1 *458:in 0.000189521
2 *457:out 0.000189521
*RES
1 *457:out *458:in 22.6179 
*END

*D_NET *38 0.00206092
*CONN
*I *459:in I *D sky130_mm_sc_hd_dlyPoly6ns
*I *458:out O *D sky130_mm_sc_hd_dlyPoly6ns
*CAP
1 *459:in 0.00103046
2 *458:out 0.00103046
3 *459:in *477:in 0
4 *459:in *478:in 0
5 *459:in *512:in 0
*RES
1 *458:out *459:in 49.6714 
*END

*D_NET *39 0.000184834
*CONN
*I *461:in I *D sky130_mm_sc_hd_dlyPoly6ns
*I *460:out O *D sky130_mm_sc_hd_dlyPoly6ns
*CAP
1 *461:in 9.2417e-05
2 *460:out 9.2417e-05
3 *5:10 *461:in 0
*RES
1 *460:out *461:in 29.6982 
*END

*D_NET *40 0.000798347
*CONN
*I *462:in I *D sky130_mm_sc_hd_dlyPoly6ns
*I *461:out O *D sky130_mm_sc_hd_dlyPoly6ns
*CAP
1 *462:in 0.000399174
2 *461:out 0.000399174
3 *460:in *462:in 0
*RES
1 *461:out *462:in 36.2964 
*END

*D_NET *41 0.00130575
*CONN
*I *463:in I *D sky130_mm_sc_hd_dlyPoly6ns
*I *462:out O *D sky130_mm_sc_hd_dlyPoly6ns
*CAP
1 *463:in 0
2 *462:out 0.000652876
3 *41:14 0.000652876
4 *14:9 *41:14 0
*RES
1 *462:out *41:14 41.5768 
2 *41:14 *463:in 9.3 
*END

*D_NET *42 0.00086935
*CONN
*I *464:in I *D sky130_mm_sc_hd_dlyPoly6ns
*I *463:out O *D sky130_mm_sc_hd_dlyPoly6ns
*CAP
1 *464:in 0.000434675
2 *463:out 0.000434675
*RES
1 *463:out *464:in 37.1179 
*END

*D_NET *43 0.00045776
*CONN
*I *465:in I *D sky130_mm_sc_hd_dlyPoly6ns
*I *464:out O *D sky130_mm_sc_hd_dlyPoly6ns
*CAP
1 *465:in 0.00022888
2 *464:out 0.00022888
*RES
1 *464:out *465:in 23.4393 
*END

*D_NET *44 0.00175568
*CONN
*I *466:in I *D sky130_mm_sc_hd_dlyPoly6ns
*I *465:out O *D sky130_mm_sc_hd_dlyPoly6ns
*CAP
1 *466:in 0
2 *465:out 0.000877838
3 *44:15 0.000877838
4 *44:15 *495:in 0
5 *44:15 *497:in 0
6 *44:15 *498:in 0
7 *14:9 *44:15 0
*RES
1 *465:out *44:15 46.4875 
2 *44:15 *466:in 9.3 
*END

*D_NET *45 0.00107058
*CONN
*I *467:in I *D sky130_mm_sc_hd_dlyPoly6ns
*I *466:out O *D sky130_mm_sc_hd_dlyPoly6ns
*CAP
1 *467:in 0.000535291
2 *466:out 0.000535291
3 *467:in *494:in 0
4 *467:in *501:in 0
*RES
1 *466:out *467:in 39.4571 
*END

*D_NET *46 0.000763673
*CONN
*I *468:in I *D sky130_mm_sc_hd_dlyPoly6ns
*I *467:out O *D sky130_mm_sc_hd_dlyPoly6ns
*CAP
1 *468:in 0.000381836
2 *467:out 0.000381836
3 *468:in *502:in 0
4 *468:in *503:in 0
*RES
1 *467:out *468:in 36.2071 
*END

*D_NET *47 0.00156959
*CONN
*I *433:B1_N I *D sky130_fd_sc_hd__o21ba_2
*I *459:out O *D sky130_mm_sc_hd_dlyPoly6ns
*CAP
1 *433:B1_N 0.000784793
2 *459:out 0.000784793
3 *433:B1_N *433:A1 0
4 *433:B1_N *477:in 0
5 *433:B1_N *75:8 0
6 *433:A2 *433:B1_N 0
7 *521:A *433:B1_N 0
8 *17:18 *433:B1_N 0
*RES
1 *459:out *433:B1_N 44.2161 
*END

*D_NET *48 0.000184834
*CONN
*I *469:in I *D sky130_mm_sc_hd_dlyPoly6ns
*I *485:out O *D sky130_mm_sc_hd_dlyPoly6ns
*CAP
1 *469:in 9.2417e-05
2 *485:out 9.2417e-05
3 *469:in *494:in 0
*RES
1 *485:out *469:in 29.6982 
*END

*D_NET *49 0.000425433
*CONN
*I *470:in I *D sky130_mm_sc_hd_dlyPoly6ns
*I *469:out O *D sky130_mm_sc_hd_dlyPoly6ns
*CAP
1 *470:in 0.000212717
2 *469:out 0.000212717
3 *470:in *493:in 0
*RES
1 *469:out *470:in 32.4304 
*END

*D_NET *50 0.00026506
*CONN
*I *471:in I *D sky130_mm_sc_hd_dlyPoly6ns
*I *470:out O *D sky130_mm_sc_hd_dlyPoly6ns
*CAP
1 *471:in 0.00013253
2 *470:out 0.00013253
3 *471:in *67:15 0
4 *471:in *75:63 0
*RES
1 *470:out *471:in 30.6089 
*END

*D_NET *51 0.000314811
*CONN
*I *472:in I *D sky130_mm_sc_hd_dlyPoly6ns
*I *471:out O *D sky130_mm_sc_hd_dlyPoly6ns
*CAP
1 *472:in 0.000157405
2 *471:out 0.000157405
3 *472:in *487:in 0
4 *472:in *68:27 0
5 *472:in *69:13 0
*RES
1 *471:out *472:in 31.0554 
*END

*D_NET *52 0.000425512
*CONN
*I *473:in I *D sky130_mm_sc_hd_dlyPoly6ns
*I *472:out O *D sky130_mm_sc_hd_dlyPoly6ns
*CAP
1 *473:in 0.000212756
2 *472:out 0.000212756
3 *473:in *517:in 0
4 *473:in *68:27 0
5 *473:in *97:19 0
*RES
1 *472:out *473:in 32.4304 
*END

*D_NET *53 0.00026506
*CONN
*I *474:in I *D sky130_mm_sc_hd_dlyPoly6ns
*I *473:out O *D sky130_mm_sc_hd_dlyPoly6ns
*CAP
1 *474:in 0.00013253
2 *473:out 0.00013253
3 *474:in *515:in 0
4 *474:in *75:77 0
*RES
1 *473:out *474:in 30.6089 
*END

*D_NET *54 0.000379042
*CONN
*I *475:in I *D sky130_mm_sc_hd_dlyPoly6ns
*I *474:out O *D sky130_mm_sc_hd_dlyPoly6ns
*CAP
1 *475:in 0.000189521
2 *474:out 0.000189521
*RES
1 *474:out *475:in 22.6179 
*END

*D_NET *55 0.000540108
*CONN
*I *476:in I *D sky130_mm_sc_hd_dlyPoly6ns
*I *475:out O *D sky130_mm_sc_hd_dlyPoly6ns
*CAP
1 *476:in 0.000270054
2 *475:out 0.000270054
3 *476:in *507:in 0
4 clk_comp *476:in 0
*RES
1 *475:out *476:in 37.2667 
*END

*D_NET *56 0.000686031
*CONN
*I *477:in I *D sky130_mm_sc_hd_dlyPoly6ns
*I *433:X O *D sky130_fd_sc_hd__o21ba_2
*CAP
1 *477:in 0.000343015
2 *433:X 0.000343015
3 *433:B1_N *477:in 0
4 *459:in *477:in 0
5 *17:18 *477:in 0
*RES
1 *433:X *477:in 35.225 
*END

*D_NET *57 0.000264981
*CONN
*I *478:in I *D sky130_mm_sc_hd_dlyPoly6ns
*I *477:out O *D sky130_mm_sc_hd_dlyPoly6ns
*CAP
1 *478:in 0.000132491
2 *477:out 0.000132491
3 *478:in *433:A1 0
4 *459:in *478:in 0
*RES
1 *477:out *478:in 30.6089 
*END

*D_NET *58 0.00070941
*CONN
*I *479:in I *D sky130_mm_sc_hd_dlyPoly6ns
*I *478:out O *D sky130_mm_sc_hd_dlyPoly6ns
*CAP
1 *479:in 0.000354705
2 *478:out 0.000354705
3 *479:in *75:32 0
*RES
1 *478:out *479:in 35.2964 
*END

*D_NET *59 0.000316162
*CONN
*I *480:in I *D sky130_mm_sc_hd_dlyPoly6ns
*I *479:out O *D sky130_mm_sc_hd_dlyPoly6ns
*CAP
1 *480:in 0.000158081
2 *479:out 0.000158081
3 *480:in *75:32 0
*RES
1 *479:out *480:in 31.1446 
*END

*D_NET *60 0.000184834
*CONN
*I *481:in I *D sky130_mm_sc_hd_dlyPoly6ns
*I *480:out O *D sky130_mm_sc_hd_dlyPoly6ns
*CAP
1 *481:in 9.2417e-05
2 *480:out 9.2417e-05
3 *457:in *481:in 0
*RES
1 *480:out *481:in 29.6982 
*END

*D_NET *61 0.000425512
*CONN
*I *482:in I *D sky130_mm_sc_hd_dlyPoly6ns
*I *481:out O *D sky130_mm_sc_hd_dlyPoly6ns
*CAP
1 *482:in 0.000212756
2 *481:out 0.000212756
3 *482:in *506:in 0
4 *482:in *509:in 0
5 *482:in *75:49 0
*RES
1 *481:out *482:in 32.4304 
*END

*D_NET *62 0.00026506
*CONN
*I *483:in I *D sky130_mm_sc_hd_dlyPoly6ns
*I *482:out O *D sky130_mm_sc_hd_dlyPoly6ns
*CAP
1 *483:in 0.00013253
2 *482:out 0.00013253
3 *483:in *75:49 0
4 *483:in *83:14 0
*RES
1 *482:out *483:in 30.6089 
*END

*D_NET *63 0.000452254
*CONN
*I *484:in I *D sky130_mm_sc_hd_dlyPoly6ns
*I *483:out O *D sky130_mm_sc_hd_dlyPoly6ns
*CAP
1 *484:in 0.000226127
2 *483:out 0.000226127
3 *484:in *505:in 0
4 *484:in *75:49 0
*RES
1 *483:out *484:in 32.7339 
*END

*D_NET *64 0.000184834
*CONN
*I *485:in I *D sky130_mm_sc_hd_dlyPoly6ns
*I *484:out O *D sky130_mm_sc_hd_dlyPoly6ns
*CAP
1 *485:in 9.2417e-05
2 *484:out 9.2417e-05
3 *485:in *79:14 0
*RES
1 *484:out *485:in 29.6982 
*END

*D_NET *65 0.000869394
*CONN
*I *486:in I *D sky130_mm_sc_hd_dlyPoly6ns
*I *519:out O *D sky130_mm_sc_hd_dlyPoly6ns
*CAP
1 *486:in 0.000434697
2 *519:out 0.000434697
*RES
1 *519:out *486:in 38.6456 
*END

*D_NET *66 0.00157689
*CONN
*I *487:in I *D sky130_mm_sc_hd_dlyPoly6ns
*I *486:out O *D sky130_mm_sc_hd_dlyPoly6ns
*CAP
1 *487:in 0.000788447
2 *486:out 0.000788447
3 *487:in *68:27 0