*SPEF "ieee 1481-1999"
*DESIGN "adc_clkgen_with_edgedetect"
*DATE "11:11:11 Fri 11 11, 1111"
*VENDOR "OpenRCX"
*PROGRAM "Parallel Extraction"
*VERSION "1.0"
*DESIGN_FLOW "NAME_SCOPE LOCAL" "PIN_CAP NONE"
*DIVIDER /
*DELIMITER :
*BUS_DELIMITER []
*T_UNIT 1 NS
*C_UNIT 1 PF
*R_UNIT 1 OHM
*L_UNIT 1 HENRY

*NAME_MAP
*3 clk_comp
*4 clk_dig
*5 comp_trig
*6 ena_in
*7 start_conv
*10 _0_
*11 clkgen\.clk_comp
*12 clkgen\.clk_dig
*13 clkgen\.comp_trig
*14 clkgen\.comp_trig_delayed
*15 clkgen\.delay_100ns_1\._intsig_a_\[10\]
*16 clkgen\.delay_100ns_1\._intsig_a_\[11\]
*17 clkgen\.delay_100ns_1\._intsig_a_\[12\]
*18 clkgen\.delay_100ns_1\._intsig_a_\[13\]
*19 clkgen\.delay_100ns_1\._intsig_a_\[14\]
*20 clkgen\.delay_100ns_1\._intsig_a_\[15\]
*21 clkgen\.delay_100ns_1\._intsig_a_\[16\]
*22 clkgen\.delay_100ns_1\._intsig_a_\[17\]
*23 clkgen\.delay_100ns_1\._intsig_a_\[2\]
*24 clkgen\.delay_100ns_1\._intsig_a_\[3\]
*25 clkgen\.delay_100ns_1\._intsig_a_\[4\]
*26 clkgen\.delay_100ns_1\._intsig_a_\[5\]
*27 clkgen\.delay_100ns_1\._intsig_a_\[6\]
*28 clkgen\.delay_100ns_1\._intsig_a_\[7\]
*29 clkgen\.delay_100ns_1\._intsig_a_\[8\]
*30 clkgen\.delay_100ns_1\._intsig_a_\[9\]
*31 clkgen\.delay_100ns_2\._intsig_a_\[10\]
*32 clkgen\.delay_100ns_2\._intsig_a_\[11\]
*33 clkgen\.delay_100ns_2\._intsig_a_\[12\]
*34 clkgen\.delay_100ns_2\._intsig_a_\[13\]
*35 clkgen\.delay_100ns_2\._intsig_a_\[14\]
*36 clkgen\.delay_100ns_2\._intsig_a_\[15\]
*37 clkgen\.delay_100ns_2\._intsig_a_\[16\]
*38 clkgen\.delay_100ns_2\._intsig_a_\[17\]
*39 clkgen\.delay_100ns_2\._intsig_a_\[2\]
*40 clkgen\.delay_100ns_2\._intsig_a_\[3\]
*41 clkgen\.delay_100ns_2\._intsig_a_\[4\]
*42 clkgen\.delay_100ns_2\._intsig_a_\[5\]
*43 clkgen\.delay_100ns_2\._intsig_a_\[6\]
*44 clkgen\.delay_100ns_2\._intsig_a_\[7\]
*45 clkgen\.delay_100ns_2\._intsig_a_\[8\]
*46 clkgen\.delay_100ns_2\._intsig_a_\[9\]
*47 clkgen\.delay_100ns_2\.out
*48 clkgen\.delay_100ns_3\._intsig_a_\[10\]
*49 clkgen\.delay_100ns_3\._intsig_a_\[11\]
*50 clkgen\.delay_100ns_3\._intsig_a_\[12\]
*51 clkgen\.delay_100ns_3\._intsig_a_\[13\]
*52 clkgen\.delay_100ns_3\._intsig_a_\[14\]
*53 clkgen\.delay_100ns_3\._intsig_a_\[15\]
*54 clkgen\.delay_100ns_3\._intsig_a_\[16\]
*55 clkgen\.delay_100ns_3\._intsig_a_\[17\]
*56 clkgen\.delay_100ns_3\._intsig_a_\[1\]
*57 clkgen\.delay_100ns_3\._intsig_a_\[2\]
*58 clkgen\.delay_100ns_3\._intsig_a_\[3\]
*59 clkgen\.delay_100ns_3\._intsig_a_\[4\]
*60 clkgen\.delay_100ns_3\._intsig_a_\[5\]
*61 clkgen\.delay_100ns_3\._intsig_a_\[6\]
*62 clkgen\.delay_100ns_3\._intsig_a_\[7\]
*63 clkgen\.delay_100ns_3\._intsig_a_\[8\]
*64 clkgen\.delay_100ns_3\._intsig_a_\[9\]
*65 edgedetect\.delay_200ns\._intsig_a_\[10\]
*66 edgedetect\.delay_200ns\._intsig_a_\[11\]
*67 edgedetect\.delay_200ns\._intsig_a_\[12\]
*68 edgedetect\.delay_200ns\._intsig_a_\[13\]
*69 edgedetect\.delay_200ns\._intsig_a_\[14\]
*70 edgedetect\.delay_200ns\._intsig_a_\[15\]
*71 edgedetect\.delay_200ns\._intsig_a_\[16\]
*72 edgedetect\.delay_200ns\._intsig_a_\[17\]
*73 edgedetect\.delay_200ns\._intsig_a_\[18\]
*74 edgedetect\.delay_200ns\._intsig_a_\[19\]
*75 edgedetect\.delay_200ns\._intsig_a_\[1\]
*76 edgedetect\.delay_200ns\._intsig_a_\[20\]
*77 edgedetect\.delay_200ns\._intsig_a_\[21\]
*78 edgedetect\.delay_200ns\._intsig_a_\[22\]
*79 edgedetect\.delay_200ns\._intsig_a_\[23\]
*80 edgedetect\.delay_200ns\._intsig_a_\[24\]
*81 edgedetect\.delay_200ns\._intsig_a_\[25\]
*82 edgedetect\.delay_200ns\._intsig_a_\[26\]
*83 edgedetect\.delay_200ns\._intsig_a_\[27\]
*84 edgedetect\.delay_200ns\._intsig_a_\[28\]
*85 edgedetect\.delay_200ns\._intsig_a_\[29\]
*86 edgedetect\.delay_200ns\._intsig_a_\[2\]
*87 edgedetect\.delay_200ns\._intsig_a_\[30\]
*88 edgedetect\.delay_200ns\._intsig_a_\[31\]
*89 edgedetect\.delay_200ns\._intsig_a_\[32\]
*90 edgedetect\.delay_200ns\._intsig_a_\[33\]
*91 edgedetect\.delay_200ns\._intsig_a_\[34\]
*92 edgedetect\.delay_200ns\._intsig_a_\[3\]
*93 edgedetect\.delay_200ns\._intsig_a_\[4\]
*94 edgedetect\.delay_200ns\._intsig_a_\[5\]
*95 edgedetect\.delay_200ns\._intsig_a_\[6\]
*96 edgedetect\.delay_200ns\._intsig_a_\[7\]
*97 edgedetect\.delay_200ns\._intsig_a_\[8\]
*98 edgedetect\.delay_200ns\._intsig_a_\[9\]
*99 edgedetect\.delay_200ns\.out
*100 edgedetect\.ena_in
*101 FILLER_0_119
*102 FILLER_0_123
*103 FILLER_0_15
*104 FILLER_0_150
*105 FILLER_0_154
*106 FILLER_0_156
*107 FILLER_0_168
*108 FILLER_0_180
*109 FILLER_0_187
*110 FILLER_0_27
*111 FILLER_0_3
*112 FILLER_0_57
*113 FILLER_0_61
*114 FILLER_0_88
*115 FILLER_0_92
*116 FILLER_10_100
*117 FILLER_10_126
*118 FILLER_10_138
*119 FILLER_10_150
*120 FILLER_10_154
*121 FILLER_10_156
*122 FILLER_10_160
*123 FILLER_10_18
*124 FILLER_10_186
*125 FILLER_10_30
*126 FILLER_10_32
*127 FILLER_10_6
*128 FILLER_10_60
*129 FILLER_10_89
*130 FILLER_10_94
*131 FILLER_11_115
*132 FILLER_11_123
*133 FILLER_11_150
*134 FILLER_11_179
*135 FILLER_11_185
*136 FILLER_11_187
*137 FILLER_11_29
*138 FILLER_11_3
*139 FILLER_11_58
*140 FILLER_11_63
*141 FILLER_11_75
*142 FILLER_11_87
*143 FILLER_12_102
*144 FILLER_12_129
*145 FILLER_12_141
*146 FILLER_12_15
*147 FILLER_12_153
*148 FILLER_12_181
*149 FILLER_12_189
*150 FILLER_12_27
*151 FILLER_12_3
*152 FILLER_12_32
*153 FILLER_12_59
*154 FILLER_12_63
*155 FILLER_12_89
*156 FILLER_12_94
*157 FILLER_13_102
*158 FILLER_13_114
*159 FILLER_13_122
*160 FILLER_13_15
*161 FILLER_13_150
*162 FILLER_13_156
*163 FILLER_13_182
*164 FILLER_13_187
*165 FILLER_13_3
*166 FILLER_13_46
*167 FILLER_13_58
*168 FILLER_13_63
*169 FILLER_13_75
*170 FILLER_14_119
*171 FILLER_14_125
*172 FILLER_14_15
*173 FILLER_14_151
*174 FILLER_14_181
*175 FILLER_14_189
*176 FILLER_14_27
*177 FILLER_14_3
*178 FILLER_14_32
*179 FILLER_14_44
*180 FILLER_14_75
*181 FILLER_14_87
*182 FILLER_15_117
*183 FILLER_15_123
*184 FILLER_15_125
*185 FILLER_15_137
*186 FILLER_15_143
*187 FILLER_15_169
*188 FILLER_15_175
*189 FILLER_15_182
*190 FILLER_15_187
*191 FILLER_15_3
*192 FILLER_15_36
*193 FILLER_15_48
*194 FILLER_15_60
*195 FILLER_15_88
*196 FILLER_16_119
*197 FILLER_16_148
*198 FILLER_16_154
*199 FILLER_16_156
*200 FILLER_16_160
*201 FILLER_16_18
*202 FILLER_16_186
*203 FILLER_16_30
*204 FILLER_16_57
*205 FILLER_16_6
*206 FILLER_16_86
*207 FILLER_16_92
*208 FILLER_17_117
*209 FILLER_17_123
*210 FILLER_17_150
*211 FILLER_17_156
*212 FILLER_17_182
*213 FILLER_17_187
*214 FILLER_17_28
*215 FILLER_17_57
*216 FILLER_17_61
*217 FILLER_17_88
*218 FILLER_18_119
*219 FILLER_18_123
*220 FILLER_18_125
*221 FILLER_18_137
*222 FILLER_18_149
*223 FILLER_18_15
*224 FILLER_18_156
*225 FILLER_18_168
*226 FILLER_18_180
*227 FILLER_18_187
*228 FILLER_18_27
*229 FILLER_18_3
*230 FILLER_18_57
*231 FILLER_18_61
*232 FILLER_18_88
*233 FILLER_18_92
*234 FILLER_1_117
*235 FILLER_1_123
*236 FILLER_1_150
*237 FILLER_1_162
*238 FILLER_1_174
*239 FILLER_1_182
*240 FILLER_1_187
*241 FILLER_1_28
*242 FILLER_1_57
*243 FILLER_1_61
*244 FILLER_1_88
*245 FILLER_2_119
*246 FILLER_2_148
*247 FILLER_2_15
*248 FILLER_2_154
*249 FILLER_2_156
*250 FILLER_2_160
*251 FILLER_2_186
*252 FILLER_2_27
*253 FILLER_2_3
*254 FILLER_2_57
*255 FILLER_2_86
*256 FILLER_2_92
*257 FILLER_3_117
*258 FILLER_3_123
*259 FILLER_3_150
*260 FILLER_3_156
*261 FILLER_3_182
*262 FILLER_3_187
*263 FILLER_3_3
*264 FILLER_3_30
*265 FILLER_3_42
*266 FILLER_3_54
*267 FILLER_3_88
*268 FILLER_4_119
*269 FILLER_4_148
*270 FILLER_4_15
*271 FILLER_4_154
*272 FILLER_4_156
*273 FILLER_4_160
*274 FILLER_4_186
*275 FILLER_4_27
*276 FILLER_4_3
*277 FILLER_4_57
*278 FILLER_4_86
*279 FILLER_4_92
*280 FILLER_5_112
*281 FILLER_5_150
*282 FILLER_5_156
*283 FILLER_5_182
*284 FILLER_5_187
*285 FILLER_5_39
*286 FILLER_5_51
*287 FILLER_5_59
*288 FILLER_5_6
*289 FILLER_5_63
*290 FILLER_5_75
*291 FILLER_6_106
*292 FILLER_6_110
*293 FILLER_6_136
*294 FILLER_6_15
*295 FILLER_6_151
*296 FILLER_6_181
*297 FILLER_6_189
*298 FILLER_6_27
*299 FILLER_6_3
*300 FILLER_6_57
*301 FILLER_6_88
*302 FILLER_6_92
*303 FILLER_6_94
*304 FILLER_7_120
*305 FILLER_7_150
*306 FILLER_7_179
*307 FILLER_7_185
*308 FILLER_7_187
*309 FILLER_7_29
*310 FILLER_7_3
*311 FILLER_7_58
*312 FILLER_7_63
*313 FILLER_7_91
*314 FILLER_8_106
*315 FILLER_8_13
*316 FILLER_8_139
*317 FILLER_8_151
*318 FILLER_8_181
*319 FILLER_8_189
*320 FILLER_8_25
*321 FILLER_8_3
*322 FILLER_8_57
*323 FILLER_8_86
*324 FILLER_8_92
*325 FILLER_8_94
*326 FILLER_9_113
*327 FILLER_9_121
*328 FILLER_9_125
*329 FILLER_9_14
*330 FILLER_9_153
*331 FILLER_9_182
*332 FILLER_9_187
*333 FILLER_9_22
*334 FILLER_9_3
*335 FILLER_9_49
*336 FILLER_9_61
*337 FILLER_9_63
*338 FILLER_9_75
*339 FILLER_9_87
*340 PHY_0
*341 PHY_1
*342 PHY_10
*343 PHY_11
*344 PHY_12
*345 PHY_13
*346 PHY_14
*347 PHY_15
*348 PHY_16
*349 PHY_17
*350 PHY_18
*351 PHY_19
*352 PHY_2
*353 PHY_20
*354 PHY_21
*355 PHY_22
*356 PHY_23
*357 PHY_24
*358 PHY_25
*359 PHY_26
*360 PHY_27
*361 PHY_28
*362 PHY_29
*363 PHY_3
*364 PHY_30
*365 PHY_31
*366 PHY_32
*367 PHY_33
*368 PHY_34
*369 PHY_35
*370 PHY_36
*371 PHY_37
*372 PHY_4
*373 PHY_5
*374 PHY_6
*375 PHY_7
*376 PHY_8
*377 PHY_9
*378 TAP_100
*379 TAP_38
*380 TAP_39
*381 TAP_40
*382 TAP_41
*383 TAP_42
*384 TAP_43
*385 TAP_44
*386 TAP_45
*387 TAP_46
*388 TAP_47
*389 TAP_48
*390 TAP_49
*391 TAP_50
*392 TAP_51
*393 TAP_52
*394 TAP_53
*395 TAP_54
*396 TAP_55
*397 TAP_56
*398 TAP_57
*399 TAP_58
*400 TAP_59
*401 TAP_60
*402 TAP_61
*403 TAP_62
*404 TAP_63
*405 TAP_64
*406 TAP_65
*407 TAP_66
*408 TAP_67
*409 TAP_68
*410 TAP_69
*411 TAP_70
*412 TAP_71
*413 TAP_72
*414 TAP_73
*415 TAP_74
*416 TAP_75
*417 TAP_76
*418 TAP_77
*419 TAP_78
*420 TAP_79
*421 TAP_80
*422 TAP_81
*423 TAP_82
*424 TAP_83
*425 TAP_84
*426 TAP_85
*427 TAP_86
*428 TAP_87
*429 TAP_88
*430 TAP_89
*431 TAP_90
*432 TAP_91
*433 TAP_92
*434 TAP_93
*435 TAP_94
*436 TAP_95
*437 TAP_96
*438 TAP_97
*439 TAP_98
*440 TAP_99
*441 _1_
*442 _2_
*443 _3_
*444 clkgen\.delay_100ns_1\.genblk1\[10\]\.delay_unit
*445 clkgen\.delay_100ns_1\.genblk1\[11\]\.delay_unit
*446 clkgen\.delay_100ns_1\.genblk1\[12\]\.delay_unit
*447 clkgen\.delay_100ns_1\.genblk1\[13\]\.delay_unit
*448 clkgen\.delay_100ns_1\.genblk1\[14\]\.delay_unit
*449 clkgen\.delay_100ns_1\.genblk1\[15\]\.delay_unit
*450 clkgen\.delay_100ns_1\.genblk1\[16\]\.delay_unit
*451 clkgen\.delay_100ns_1\.genblk1\[17\]\.delay_unit
*452 clkgen\.delay_100ns_1\.genblk1\[1\]\.delay_unit
*453 clkgen\.delay_100ns_1\.genblk1\[2\]\.delay_unit
*454 clkgen\.delay_100ns_1\.genblk1\[3\]\.delay_unit
*455 clkgen\.delay_100ns_1\.genblk1\[4\]\.delay_unit
*456 clkgen\.delay_100ns_1\.genblk1\[5\]\.delay_unit
*457 clkgen\.delay_100ns_1\.genblk1\[6\]\.delay_unit
*458 clkgen\.delay_100ns_1\.genblk1\[7\]\.delay_unit
*459 clkgen\.delay_100ns_1\.genblk1\[8\]\.delay_unit
*460 clkgen\.delay_100ns_1\.genblk1\[9\]\.delay_unit
*461 clkgen\.delay_100ns_2\.genblk1\[10\]\.delay_unit
*462 clkgen\.delay_100ns_2\.genblk1\[11\]\.delay_unit
*463 clkgen\.delay_100ns_2\.genblk1\[12\]\.delay_unit
*464 clkgen\.delay_100ns_2\.genblk1\[13\]\.delay_unit
*465 clkgen\.delay_100ns_2\.genblk1\[14\]\.delay_unit
*466 clkgen\.delay_100ns_2\.genblk1\[15\]\.delay_unit
*467 clkgen\.delay_100ns_2\.genblk1\[16\]\.delay_unit
*468 clkgen\.delay_100ns_2\.genblk1\[17\]\.delay_unit
*469 clkgen\.delay_100ns_2\.genblk1\[1\]\.delay_unit
*470 clkgen\.delay_100ns_2\.genblk1\[2\]\.delay_unit
*471 clkgen\.delay_100ns_2\.genblk1\[3\]\.delay_unit
*472 clkgen\.delay_100ns_2\.genblk1\[4\]\.delay_unit
*473 clkgen\.delay_100ns_2\.genblk1\[5\]\.delay_unit
*474 clkgen\.delay_100ns_2\.genblk1\[6\]\.delay_unit
*475 clkgen\.delay_100ns_2\.genblk1\[7\]\.delay_unit
*476 clkgen\.delay_100ns_2\.genblk1\[8\]\.delay_unit
*477 clkgen\.delay_100ns_2\.genblk1\[9\]\.delay_unit
*478 clkgen\.delay_100ns_3\.genblk1\[10\]\.delay_unit
*479 clkgen\.delay_100ns_3\.genblk1\[11\]\.delay_unit
*480 clkgen\.delay_100ns_3\.genblk1\[12\]\.delay_unit
*481 clkgen\.delay_100ns_3\.genblk1\[13\]\.delay_unit
*482 clkgen\.delay_100ns_3\.genblk1\[14\]\.delay_unit
*483 clkgen\.delay_100ns_3\.genblk1\[15\]\.delay_unit
*484 clkgen\.delay_100ns_3\.genblk1\[16\]\.delay_unit
*485 clkgen\.delay_100ns_3\.genblk1\[17\]\.delay_unit
*486 clkgen\.delay_100ns_3\.genblk1\[1\]\.delay_unit
*487 clkgen\.delay_100ns_3\.genblk1\[2\]\.delay_unit
*488 clkgen\.delay_100ns_3\.genblk1\[3\]\.delay_unit
*489 clkgen\.delay_100ns_3\.genblk1\[4\]\.delay_unit
*490 clkgen\.delay_100ns_3\.genblk1\[5\]\.delay_unit
*491 clkgen\.delay_100ns_3\.genblk1\[6\]\.delay_unit
*492 clkgen\.delay_100ns_3\.genblk1\[7\]\.delay_unit
*493 clkgen\.delay_100ns_3\.genblk1\[8\]\.delay_unit
*494 clkgen\.delay_100ns_3\.genblk1\[9\]\.delay_unit
*495 edgedetect\.delay_200ns\.genblk1\[10\]\.delay_unit
*496 edgedetect\.delay_200ns\.genblk1\[11\]\.delay_unit
*497 edgedetect\.delay_200ns\.genblk1\[12\]\.delay_unit
*498 edgedetect\.delay_200ns\.genblk1\[13\]\.delay_unit
*499 edgedetect\.delay_200ns\.genblk1\[14\]\.delay_unit
*500 edgedetect\.delay_200ns\.genblk1\[15\]\.delay_unit
*501 edgedetect\.delay_200ns\.genblk1\[16\]\.delay_unit
*502 edgedetect\.delay_200ns\.genblk1\[17\]\.delay_unit
*503 edgedetect\.delay_200ns\.genblk1\[18\]\.delay_unit
*504 edgedetect\.delay_200ns\.genblk1\[19\]\.delay_unit
*505 edgedetect\.delay_200ns\.genblk1\[1\]\.delay_unit
*506 edgedetect\.delay_200ns\.genblk1\[20\]\.delay_unit
*507 edgedetect\.delay_200ns\.genblk1\[21\]\.delay_unit
*508 edgedetect\.delay_200ns\.genblk1\[22\]\.delay_unit
*509 edgedetect\.delay_200ns\.genblk1\[23\]\.delay_unit
*510 edgedetect\.delay_200ns\.genblk1\[24\]\.delay_unit
*511 edgedetect\.delay_200ns\.genblk1\[25\]\.delay_unit
*512 edgedetect\.delay_200ns\.genblk1\[26\]\.delay_unit
*513 edgedetect\.delay_200ns\.genblk1\[27\]\.delay_unit
*514 edgedetect\.delay_200ns\.genblk1\[28\]\.delay_unit
*515 edgedetect\.delay_200ns\.genblk1\[29\]\.delay_unit
*516 edgedetect\.delay_200ns\.genblk1\[2\]\.delay_unit
*517 edgedetect\.delay_200ns\.genblk1\[30\]\.delay_unit
*518 edgedetect\.delay_200ns\.genblk1\[31\]\.delay_unit
*519 edgedetect\.delay_200ns\.genblk1\[32\]\.delay_unit
*520 edgedetect\.delay_200ns\.genblk1\[33\]\.delay_unit
*521 edgedetect\.delay_200ns\.genblk1\[34\]\.delay_unit
*522 edgedetect\.delay_200ns\.genblk1\[3\]\.delay_unit
*523 edgedetect\.delay_200ns\.genblk1\[4\]\.delay_unit
*524 edgedetect\.delay_200ns\.genblk1\[5\]\.delay_unit
*525 edgedetect\.delay_200ns\.genblk1\[6\]\.delay_unit
*526 edgedetect\.delay_200ns\.genblk1\[7\]\.delay_unit
*527 edgedetect\.delay_200ns\.genblk1\[8\]\.delay_unit
*528 edgedetect\.delay_200ns\.genblk1\[9\]\.delay_unit
*529 inbuf_1
*530 inbuf_2
*531 inbuf_3
*532 outbuf_1
*533 outbuf_2

*PORTS
clk_comp O
clk_dig O
comp_trig I
ena_in I
start_conv I

*D_NET *3 0.00100062
*CONN
*P clk_comp O
*I *533:X O *D sky130_fd_sc_hd__buf_4
*CAP
1 clk_comp 0.00050031
2 *533:X 0.00050031
3 clk_comp *484:in 0
4 clk_comp *11:14 0
*RES
1 *533:X clk_comp 21.0406 
*END

*D_NET *4 0.00105406
*CONN
*P clk_dig O
*I *532:X O *D sky130_fd_sc_hd__buf_4
*CAP
1 clk_dig 0.000527032
2 *532:X 0.000527032
3 clk_dig *470:in 0
4 clk_dig *84:12 0
*RES
1 *532:X clk_dig 21.6477 
*END

*D_NET *5 0.000830259
*CONN
*P comp_trig I
*I *531:A I *D sky130_fd_sc_hd__buf_1
*CAP
1 comp_trig 0.000415129
2 *531:A 0.000415129
3 *531:A *442:A_N 0
4 *531:A *454:in 0
*RES
1 comp_trig *531:A 23.2836 
*END

*D_NET *6 0.00141858
*CONN
*P ena_in I
*I *529:A I *D sky130_fd_sc_hd__buf_1
*CAP
1 ena_in 0.000709291
2 *529:A 0.000709291
3 *529:A *443:B1_N 0
4 *529:A *488:in 0
5 *529:A *505:in 0
*RES
1 ena_in *529:A 29.9621 
*END

*D_NET *7 0.000536097
*CONN
*P start_conv I
*I *530:A I *D sky130_fd_sc_hd__buf_1
*CAP
1 start_conv 0.000268049
2 *530:A 0.000268049
3 *530:A *442:A_N 0
4 *530:A *75:9 0
*RES
1 start_conv *530:A 19.9443 
*END

*D_NET *10 0.000222801
*CONN
*I *443:A2 I *D sky130_fd_sc_hd__o21ba_2
*I *442:X O *D sky130_fd_sc_hd__and2b_2
*CAP
1 *443:A2 0.0001114
2 *442:X 0.0001114
3 *443:A2 *443:A1 0
4 *443:A2 *505:in 0
5 *443:A2 *75:9 0
*RES
1 *442:X *443:A2 30.0821 
*END

*D_NET *11 0.0013063
*CONN
*I *533:A I *D sky130_fd_sc_hd__buf_4
*I *485:out O *D sky130_mm_sc_hd_dlyPoly6ns
*CAP
1 *533:A 0
2 *485:out 0.000653152
3 *11:14 0.000653152
4 *11:14 *484:in 0
5 *11:14 *55:18 0
6 clk_comp *11:14 0
*RES
1 *485:out *11:14 41.5768 
2 *11:14 *533:A 9.3 
*END

*D_NET *12 0.00254306
*CONN
*I *469:in I *D sky130_mm_sc_hd_dlyPoly6ns
*I *532:A I *D sky130_fd_sc_hd__buf_4
*I *441:Y O *D sky130_fd_sc_hd__inv_2
*CAP
1 *469:in 0.000180109
2 *532:A 0.000575942
3 *441:Y 0.000515477
4 *12:11 0.00127153
5 *469:in *518:in 0
6 *532:A *72:17 0
7 *532:A *91:10 0
8 *12:11 *441:A 0
9 *12:11 *518:in 0
10 *12:11 *83:17 0
11 *12:11 *91:10 0
*RES
1 *441:Y *12:11 29.8357 
2 *12:11 *532:A 30.5321 
3 *12:11 *469:in 13.1214 
*END

*D_NET *13 0.0011628
*CONN
*I *452:in I *D sky130_mm_sc_hd_dlyPoly6ns
*I *531:X O *D sky130_fd_sc_hd__buf_1
*CAP
1 *452:in 0.000581398
2 *531:X 0.000581398
*RES
1 *531:X *452:in 30.7964 
*END

*D_NET *14 0.00106594
*CONN
*I *441:A I *D sky130_fd_sc_hd__inv_2
*I *451:out O *D sky130_mm_sc_hd_dlyPoly6ns
*CAP
1 *441:A 0.000532969
2 *451:out 0.000532969
3 *441:A *471:in 0
4 *441:A *472:in 0
5 *441:A *83:17 0
6 *12:11 *441:A 0
*RES
1 *451:out *441:A 39.1893 
*END

*D_NET *15 0.000347604
*CONN
*I *444:in I *D sky130_mm_sc_hd_dlyPoly6ns
*I *460:out O *D sky130_mm_sc_hd_dlyPoly6ns
*CAP
1 *444:in 0.000173802
2 *460:out 0.000173802
3 *444:in *98:8 0
*RES
1 *460:out *444:in 31.3857 
*END

*D_NET *16 0.000184755
*CONN
*I *445:in I *D sky130_mm_sc_hd_dlyPoly6ns
*I *444:out O *D sky130_mm_sc_hd_dlyPoly6ns
*CAP
1 *445:in 9.23777e-05
2 *444:out 9.23777e-05
3 *445:in *76:8 0
*RES
1 *444:out *445:in 29.6982 
*END

*D_NET *17 0.000425512
*CONN
*I *446:in I *D sky130_mm_sc_hd_dlyPoly6ns
*I *445:out O *D sky130_mm_sc_hd_dlyPoly6ns
*CAP
1 *446:in 0.000212756
2 *445:out 0.000212756
3 *446:in *70:8 0
4 *446:in *89:6 0
*RES
1 *445:out *446:in 32.4304 
*END

*D_NET *18 0.00026506
*CONN
*I *447:in I *D sky130_mm_sc_hd_dlyPoly6ns
*I *446:out O *D sky130_mm_sc_hd_dlyPoly6ns
*CAP
1 *447:in 0.00013253
2 *446:out 0.00013253
3 *447:in *72:17 0
4 *447:in *87:12 0
5 *447:in *89:6 0
*RES
1 *446:out *447:in 30.6089 
*END

*D_NET *19 0.000591372
*CONN
*I *448:in I *D sky130_mm_sc_hd_dlyPoly6ns
*I *447:out O *D sky130_mm_sc_hd_dlyPoly6ns
*CAP
1 *448:in 0.000295686
2 *447:out 0.000295686
3 *448:in *83:17 0
*RES
1 *447:out *448:in 34.0643 
*END

*D_NET *20 0.00026506
*CONN
*I *449:in I *D sky130_mm_sc_hd_dlyPoly6ns
*I *448:out O *D sky130_mm_sc_hd_dlyPoly6ns
*CAP
1 *449:in 0.00013253
2 *448:out 0.00013253
3 *449:in *84:12 0
4 *449:in *88:18 0
*RES
1 *448:out *449:in 30.6089 
*END

*D_NET *21 0.000184834
*CONN
*I *450:in I *D sky130_mm_sc_hd_dlyPoly6ns
*I *449:out O *D sky130_mm_sc_hd_dlyPoly6ns
*CAP
1 *450:in 9.2417e-05
2 *449:out 9.2417e-05
*RES
1 *449:out *450:in 29.6982 
*END

*D_NET *22 0.00144414
*CONN
*I *451:in I *D sky130_mm_sc_hd_dlyPoly6ns
*I *450:out O *D sky130_mm_sc_hd_dlyPoly6ns
*CAP
1 *451:in 0.000722071
2 *450:out 0.000722071
3 *451:in *84:12 0
*RES
1 *450:out *451:in 43.8321 
*END

*D_NET *23 0.00130665
*CONN
*I *453:in I *D sky130_mm_sc_hd_dlyPoly6ns
*I *452:out O *D sky130_mm_sc_hd_dlyPoly6ns
*CAP
1 *453:in 0.000653324
2 *452:out 0.000653324
3 *453:in *523:in 0
4 *453:in *57:15 0
5 *453:in *94:12 0
6 *453:in *96:12 0
7 *453:in *99:24 0
*RES
1 *452:out *453:in 41.2208 
*END

*D_NET *24 0.001308
*CONN
*I *454:in I *D sky130_mm_sc_hd_dlyPoly6ns
*I *453:out O *D sky130_mm_sc_hd_dlyPoly6ns
*CAP
1 *454:in 0.000653998
2 *453:out 0.000653998
3 *454:in *442:A_N 0
4 *531:A *454:in 0
*RES
1 *453:out *454:in 42.4482 
*END

*D_NET *25 0.00121905
*CONN
*I *455:in I *D sky130_mm_sc_hd_dlyPoly6ns
*I *454:out O *D sky130_mm_sc_hd_dlyPoly6ns
*CAP
1 *455:in 0.000609527
2 *454:out 0.000609527
3 *455:in *57:15 0
4 *455:in *94:12 0
*RES
1 *454:out *455:in 41.1536 
*END

*D_NET *26 0.000701861
*CONN
*I *456:in I *D sky130_mm_sc_hd_dlyPoly6ns
*I *455:out O *D sky130_mm_sc_hd_dlyPoly6ns
*CAP
1 *456:in 0.000350931
2 *455:out 0.000350931
3 *456:in *442:A_N 0
*RES
1 *455:out *456:in 35.4482 
*END

*D_NET *27 0.000264981
*CONN
*I *457:in I *D sky130_mm_sc_hd_dlyPoly6ns
*I *456:out O *D sky130_mm_sc_hd_dlyPoly6ns
*CAP
1 *457:in 0.000132491
2 *456:out 0.000132491
3 *457:in *94:12 0
*RES
1 *456:out *457:in 30.6089 
*END

*D_NET *28 0.000184834
*CONN
*I *458:in I *D sky130_mm_sc_hd_dlyPoly6ns
*I *457:out O *D sky130_mm_sc_hd_dlyPoly6ns
*CAP
1 *458:in 9.2417e-05
2 *457:out 9.2417e-05
3 *458:in *491:in 0
4 *458:in *523:in 0
*RES
1 *457:out *458:in 29.6982 
*END

*D_NET *29 0.0016399
*CONN
*I *459:in I *D sky130_mm_sc_hd_dlyPoly6ns
*I *458:out O *D sky130_mm_sc_hd_dlyPoly6ns
*CAP
1 *459:in 0.000819948
2 *458:out 0.000819948
3 *459:in *490:in 0
4 *459:in *523:in 0
5 *459:in *94:12 0
*RES
1 *458:out *459:in 45.6982 
*END

*D_NET *30 0.000829473
*CONN
*I *460:in I *D sky130_mm_sc_hd_dlyPoly6ns
*I *459:out O *D sky130_mm_sc_hd_dlyPoly6ns
*CAP
1 *460:in 0.000414736
2 *459:out 0.000414736
3 *460:in *496:in 0
4 *460:in *498:in 0
5 *460:in *73:8 0
*RES
1 *459:out *460:in 45.6804 
*END

*D_NET *31 0.000476653
*CONN
*I *461:in I *D sky130_mm_sc_hd_dlyPoly6ns
*I *477:out O *D sky130_mm_sc_hd_dlyPoly6ns
*CAP
1 *461:in 0.000238326
2 *477:out 0.000238326
3 *461:in *98:8 0
*RES
1 *477:out *461:in 32.9661 
*END

*D_NET *32 0.000601694
*CONN
*I *462:in I *D sky130_mm_sc_hd_dlyPoly6ns
*I *461:out O *D sky130_mm_sc_hd_dlyPoly6ns
*CAP
1 *462:in 0.000300847
2 *461:out 0.000300847
3 *462:in *498:in 0
4 *462:in *66:16 0
*RES
1 *461:out *462:in 34.4304 
*END

*D_NET *33 0.000896643
*CONN
*I *463:in I *D sky130_mm_sc_hd_dlyPoly6ns
*I *462:out O *D sky130_mm_sc_hd_dlyPoly6ns
*CAP
1 *463:in 0.000448321
2 *462:out 0.000448321
3 *463:in *465:in 0
4 *463:in *523:in 0
5 *463:in *96:12 0
*RES
1 *462:out *463:in 37.4214 
*END

*D_NET *34 0.000184795
*CONN
*I *464:in I *D sky130_mm_sc_hd_dlyPoly6ns
*I *463:out O *D sky130_mm_sc_hd_dlyPoly6ns
*CAP
1 *464:in 9.23974e-05
2 *463:out 9.23974e-05
3 *464:in *57:15 0
4 *464:in *94:12 0
*RES
1 *463:out *464:in 29.6982 
*END

*D_NET *35 0.00026506
*CONN
*I *465:in I *D sky130_mm_sc_hd_dlyPoly6ns
*I *464:out O *D sky130_mm_sc_hd_dlyPoly6ns
*CAP
1 *465:in 0.00013253
2 *464:out 0.00013253
3 *465:in *523:in 0
4 *463:in *465:in 0
*RES
1 *464:out *465:in 30.6089 
*END

*D_NET *36 0.000184834
*CONN
*I *466:in I *D sky130_mm_sc_hd_dlyPoly6ns
*I *465:out O *D sky130_mm_sc_hd_dlyPoly6ns
*CAP
1 *466:in 9.2417e-05
2 *465:out 9.2417e-05
3 *466:in *57:15 0
4 *466:in *94:12 0
*RES
1 *465:out *466:in 29.6982 
*END

*D_NET *37 0.000828062
*CONN
*I *467:in I *D sky130_mm_sc_hd_dlyPoly6ns
*I *466:out O *D sky130_mm_sc_hd_dlyPoly6ns
*CAP
1 *467:in 0.000414031
2 *466:out 0.000414031
3 *467:in *443:B1_N 0
*RES
1 *466:out *467:in 36.4839 
*END

*D_NET *38 0.00424824
*CONN
*I *468:in I *D sky130_mm_sc_hd_dlyPoly6ns
*I *467:out O *D sky130_mm_sc_hd_dlyPoly6ns
*CAP
1 *468:in 0.000559308
2 *467:out 0.00156481
3 *38:21 0.00212412
4 *468:in *512:in 0
5 *468:in *514:in 0
6 *468:in *520:in 0
7 *468:in *70:8 0
8 *468:in *78:10 0
9 *468:in *80:23 0
10 *468:in *85:15 0
11 *468:in *89:6 0
12 *38:21 *523:in 0
13 *38:21 *524:in 0
14 *38:21 *96:12 0
15 *38:21 *98:8 0
*RES
1 *467:out *38:21 49.218 
2 *38:21 *468:in 26.4518 
*END

*D_NET *39 0.000264981
*CONN
*I *470:in I *D sky130_mm_sc_hd_dlyPoly6ns
*I *469:out O *D sky130_mm_sc_hd_dlyPoly6ns
*CAP
1 *470:in 0.000132491
2 *469:out 0.000132491
3 *470:in *84:12 0
4 clk_dig *470:in 0
*RES
1 *469:out *470:in 30.6089 
*END

*D_NET *40 0.000881698
*CONN
*I *471:in I *D sky130_mm_sc_hd_dlyPoly6ns
*I *470:out O *D sky130_mm_sc_hd_dlyPoly6ns
*CAP
1 *471:in 0.000440849
2 *470:out 0.000440849
3 *471:in *88:18 0
4 *441:A *471:in 0
*RES
1 *470:out *471:in 37.6089 
*END

*D_NET *41 0.000184834
*CONN
*I *472:in I *D sky130_mm_sc_hd_dlyPoly6ns
*I *471:out O *D sky130_mm_sc_hd_dlyPoly6ns
*CAP
1 *472:in 9.2417e-05
2 *471:out 9.2417e-05
3 *441:A *472:in 0
*RES
1 *471:out *472:in 29.6982 
*END

*D_NET *42 0.00026506
*CONN
*I *473:in I *D sky130_mm_sc_hd_dlyPoly6ns
*I *472:out O *D sky130_mm_sc_hd_dlyPoly6ns
*CAP
1 *473:in 0.00013253
2 *472:out 0.00013253
3 *473:in *84:12 0
4 *473:in *88:18 0
*RES
1 *472:out *473:in 30.6089 
*END

*D_NET *43 0.000379042
*CONN
*I *474:in I *D sky130_mm_sc_hd_dlyPoly6ns
*I *473:out O *D sky130_mm_sc_hd_dlyPoly6ns
*CAP
1 *474:in 0.000189521
2 *473:out 0.000189521
*RES
1 *473:out *474:in 22.6179 
*END

*D_NET *44 0.00026506
*CONN
*I *475:in I *D sky130_mm_sc_hd_dlyPoly6ns
*I *474:out O *D sky130_mm_sc_hd_dlyPoly6ns
*CAP
1 *475:in 0.00013253
2 *474:out 0.00013253
3 *475:in *89:6 0
*RES
1 *474:out *475:in 30.6089 
*END

*D_NET *45 0.00026506
*CONN
*I *476:in I *D sky130_mm_sc_hd_dlyPoly6ns
*I *475:out O *D sky130_mm_sc_hd_dlyPoly6ns
*CAP
1 *476:in 0.00013253
2 *475:out 0.00013253
3 *476:in *70:8 0
*RES
1 *475:out *476:in 30.6089 
*END

*D_NET *46 0.000829276
*CONN
*I *477:in I *D sky130_mm_sc_hd_dlyPoly6ns
*I *476:out O *D sky130_mm_sc_hd_dlyPoly6ns
*CAP
1 *477:in 0.000414638
2 *476:out 0.000414638
3 *477:in *76:8 0
4 *477:in *79:18 0
5 *477:in *81:22 0
*RES
1 *476:out *477:in 45.6804 
*END

*D_NET *47 0.00738058
*CONN
*I *443:B1_N I *D sky130_fd_sc_hd__o21ba_2
*I *468:out O *D sky130_mm_sc_hd_dlyPoly6ns
*CAP
1 *443:B1_N 0.000954845
2 *468:out 9.2417e-05
3 *47:9 0.00359787
4 *47:8 0.00273545
5 *443:B1_N *505:in 0
6 *47:8 *72:17 0
7 *47:9 *502:in 0
8 *47:9 *514:in 0
9 *47:9 *72:17 0
10 *47:9 *95:12 0
11 *47:9 *96:11 0
12 *467:in *443:B1_N 0
13 *529:A *443:B1_N 0
*RES
1 *468:out *47:8 20.3982 
2 *47:8 *47:9 55.1607 
3 *47:9 *443:B1_N 39.9786 
*END

*D_NET *48 0.000184755
*CONN
*I *478:in I *D sky130_mm_sc_hd_dlyPoly6ns
*I *494:out O *D sky130_mm_sc_hd_dlyPoly6ns
*CAP
1 *478:in 9.23777e-05
2 *494:out 9.23777e-05
3 *478:in *76:8 0
*RES
1 *494:out *478:in 29.6982 
*END

*D_NET *49 0.000316397
*CONN
*I *479:in I *D sky130_mm_sc_hd_dlyPoly6ns
*I *478:out O *D sky130_mm_sc_hd_dlyPoly6ns
*CAP
1 *479:in 0.000158199
2 *478:out 0.000158199
3 *479:in *71:19 0
4 *479:in *89:6 0
*RES
1 *478:out *479:in 31.1446 
*END

*D_NET *50 0.000184834
*CONN
*I *480:in I *D sky130_mm_sc_hd_dlyPoly6ns
*I *479:out O *D sky130_mm_sc_hd_dlyPoly6ns
*CAP
1 *480:in 9.2417e-05
2 *479:out 9.2417e-05
3 *480:in *90:8 0
4 *480:in *91:10 0
*RES
1 *479:out *480:in 29.6982 
*END

*D_NET *51 0.000828062
*CONN
*I *481:in I *D sky130_mm_sc_hd_dlyPoly6ns
*I *480:out O *D sky130_mm_sc_hd_dlyPoly6ns
*CAP
1 *481:in 0.000414031
2 *480:out 0.000414031
3 *481:in *89:6 0
*RES
1 *480:out *481:in 36.4839 
*END

*D_NET *52 0.000591372
*CONN
*I *482:in I *D sky130_mm_sc_hd_dlyPoly6ns
*I *481:out O *D sky130_mm_sc_hd_dlyPoly6ns
*CAP
1 *482:in 0.000295686
2 *481:out 0.000295686
3 *482:in *484:in 0
*RES
1 *481:out *482:in 34.0643 
*END

*D_NET *53 0.000503591
*CONN
*I *483:in I *D sky130_mm_sc_hd_dlyPoly6ns
*I *482:out O *D sky130_mm_sc_hd_dlyPoly6ns
*CAP
1 *483:in 0.000251796
2 *482:out 0.000251796
3 *483:in *55:18 0
*RES
1 *482:out *483:in 33.2696 
*END

*D_NET *54 0.000612705
*CONN
*I *484:in I *D sky130_mm_sc_hd_dlyPoly6ns
*I *483:out O *D sky130_mm_sc_hd_dlyPoly6ns
*CAP
1 *484:in 0.000306353
2 *483:out 0.000306353
3 clk_comp *484:in 0
4 *482:in *484:in 0
5 *11:14 *484:in 0
*RES
1 *483:out *484:in 34.5554 
*END

*D_NET *55 0.00168292
*CONN
*I *485:in I *D sky130_mm_sc_hd_dlyPoly6ns
*I *484:out O *D sky130_mm_sc_hd_dlyPoly6ns
*CAP
1 *485:in 0
2 *484:out 0.00084146
3 *55:18 0.00084146
4 *483:in *55:18 0
5 *11:14 *55:18 0
*RES
1 *484:out *55:18 46.0589 
2 *55:18 *485:in 9.3 
*END

*D_NET *56 0.00560646
*CONN
*I *486:in I *D sky130_mm_sc_hd_dlyPoly6ns
*I *443:X O *D sky130_fd_sc_hd__o21ba_2
*CAP
1 *486:in 0.00108187
2 *443:X 0.00172136
3 *56:17 0.00280323
4 *486:in *499:in 0
5 *486:in *504:in 0
6 *486:in *82:8 0
7 *56:17 *57:15 0
*RES
1 *443:X *56:17 35.1262 
2 *56:17 *486:in 38.3625 
*END

*D_NET *57 0.00671773
*CONN
*I *487:in I *D sky130_mm_sc_hd_dlyPoly6ns
*I *486:out O *D sky130_mm_sc_hd_dlyPoly6ns
*CAP
1 *487:in 0
2 *486:out 0.00169681
3 *57:15 0.00166206
4 *57:11 0.00335887
5 *57:11 *99:24 0
6 *57:15 *489:in 0
7 *57:15 *94:12 0
8 *57:15 *99:24 0
9 *453:in *57:15 0
10 *455:in *57:15 0
11 *464:in *57:15 0
12 *466:in *57:15 0
13 *56:17 *57:15 0
*RES
1 *486:out *57:11 27.3807 
2 *57:11 *57:15 42.1518 
3 *57:15 *487:in 9.3 
*END

*D_NET *58 0.000853383
*CONN
*I *488:in I *D sky130_mm_sc_hd_dlyPoly6ns
*I *487:out O *D sky130_mm_sc_hd_dlyPoly6ns
*CAP
1 *488:in 0.000426691
2 *487:out 0.000426691
3 *488:in *443:A1 0
4 *488:in *505:in 0
5 *529:A *488:in 0
*RES
1 *487:out *488:in 37.2875 
*END

*D_NET *59 0.0005884
*CONN
*I *489:in I *D sky130_mm_sc_hd_dlyPoly6ns
*I *488:out O *D sky130_mm_sc_hd_dlyPoly6ns
*CAP
1 *489:in 0.0002942
2 *488:out 0.0002942
3 *57:15 *489:in 0
*RES
1 *488:out *489:in 34.1179 
*END

*D_NET *60 0.000237531
*CONN
*I *490:in I *D sky130_mm_sc_hd_dlyPoly6ns
*I *489:out O *D sky130_mm_sc_hd_dlyPoly6ns
*CAP
1 *490:in 0.000118766
2 *489:out 0.000118766
3 *490:in *94:12 0
4 *459:in *490:in 0
*RES
1 *489:out *490:in 30.3589 
*END

*D_NET *61 0.000880125
*CONN
*I *491:in I *D sky130_mm_sc_hd_dlyPoly6ns
*I *490:out O *D sky130_mm_sc_hd_dlyPoly6ns
*CAP
1 *491:in 0.000440062
2 *490:out 0.000440062
3 *491:in *523:in 0
4 *491:in *96:12 0
5 *458:in *491:in 0
*RES
1 *490:out *491:in 37.5911 
*END

*D_NET *62 0.000425512
*CONN
*I *492:in I *D sky130_mm_sc_hd_dlyPoly6ns
*I *491:out O *D sky130_mm_sc_hd_dlyPoly6ns
*CAP
1 *492:in 0.000212756
2 *491:out 0.000212756
3 *492:in *496:in 0
4 *492:in *73:8 0
*RES
1 *491:out *492:in 32.4304 
*END

*D_NET *63 0.00026506
*CONN
*I *493:in I *D sky130_mm_sc_hd_dlyPoly6ns
*I *492:out O *D sky130_mm_sc_hd_dlyPoly6ns
*CAP
1 *493:in 0.00013253
2 *492:out 0.00013253
3 *493:in *504:in 0
4 *493:in *98:8 0
*RES
1 *492:out *493:in 30.6089 
*END

*D_NET *64 0.000452254
*CONN
*I *494:in I *D sky130_mm_sc_hd_dlyPoly6ns
*I *493:out O *D sky130_mm_sc_hd_dlyPoly6ns
*CAP
1 *494:in 0.000226127
2 *493:out 0.000226127
3 *494:in *77:6 0
4 *494:in *79:18 0
*RES
1 *493:out *494:in 32.7339 
*END

*D_NET *65 0.00336867
*CONN
*I *495:in I *D sky130_mm_sc_hd_dlyPoly6ns
*I *528:out O *D sky130_mm_sc_hd_dlyPoly6ns
*CAP
1 *495:in 0.000372699
2 *528:out 0.00131163
3 *65:10 0.00168433
4 *495:in *66:16 0
5 *495:in *73:8 0
6 *495:in *95:12 0
7 *65:10 *67:6 0
8 *65:10 *73:8 0