*SPEF "ieee 1481-1999"
*DESIGN "adc_core_digital"
*DATE "11:11:11 Fri 11 11, 1111"
*VENDOR "OpenRCX"
*PROGRAM "Parallel Extraction"
*VERSION "1.0"
*DESIGN_FLOW "NAME_SCOPE LOCAL" "PIN_CAP NONE"
*DIVIDER /
*DELIMITER :
*BUS_DELIMITER []
*T_UNIT 1 NS
*C_UNIT 1 PF
*R_UNIT 1 OHM
*L_UNIT 1 HENRY

*NAME_MAP
*3 clk_dig_in
*4 comparator_in
*5 config_1_in[0]
*6 config_1_in[10]
*7 config_1_in[11]
*8 config_1_in[12]
*9 config_1_in[13]
*10 config_1_in[14]
*11 config_1_in[15]
*12 config_1_in[1]
*13 config_1_in[2]
*14 config_1_in[3]
*15 config_1_in[4]
*16 config_1_in[5]
*17 config_1_in[6]
*18 config_1_in[7]
*19 config_1_in[8]
*20 config_1_in[9]
*21 config_2_in[0]
*22 config_2_in[10]
*23 config_2_in[11]
*24 config_2_in[12]
*25 config_2_in[13]
*26 config_2_in[14]
*27 config_2_in[15]
*28 config_2_in[1]
*29 config_2_in[2]
*30 config_2_in[3]
*31 config_2_in[4]
*32 config_2_in[5]
*33 config_2_in[6]
*34 config_2_in[7]
*35 config_2_in[8]
*36 config_2_in[9]
*37 conv_finished_out
*38 enable_loop_out
*39 nmatrix_bincap_out_n[0]
*40 nmatrix_bincap_out_n[1]
*41 nmatrix_bincap_out_n[2]
*42 net193
*43 nmatrix_col_out_n[0]
*44 nmatrix_col_out_n[10]
*45 nmatrix_col_out_n[11]
*46 nmatrix_col_out_n[12]
*47 nmatrix_col_out_n[13]
*48 nmatrix_col_out_n[14]
*49 nmatrix_col_out_n[15]
*50 nmatrix_col_out_n[16]
*51 nmatrix_col_out_n[17]
*52 nmatrix_col_out_n[18]
*53 nmatrix_col_out_n[19]
*54 nmatrix_col_out_n[1]
*55 nmatrix_col_out_n[20]
*56 nmatrix_col_out_n[21]
*57 nmatrix_col_out_n[22]
*58 nmatrix_col_out_n[23]
*59 nmatrix_col_out_n[24]
*60 nmatrix_col_out_n[25]
*61 nmatrix_col_out_n[26]
*62 nmatrix_col_out_n[27]
*63 nmatrix_col_out_n[28]
*64 nmatrix_col_out_n[29]
*65 nmatrix_col_out_n[2]
*66 nmatrix_col_out_n[30]
*67 nmatrix_col_out_n[31]
*68 nmatrix_col_out_n[3]
*69 nmatrix_col_out_n[4]
*70 nmatrix_col_out_n[5]
*71 nmatrix_col_out_n[6]
*72 nmatrix_col_out_n[7]
*73 nmatrix_col_out_n[8]
*74 nmatrix_col_out_n[9]
*75 net194
*76 nmatrix_row_out_n[10]
*77 nmatrix_row_out_n[11]
*78 nmatrix_row_out_n[12]
*79 nmatrix_row_out_n[13]
*80 nmatrix_row_out_n[14]
*81 nmatrix_row_out_n[15]
*82 nmatrix_row_out_n[1]
*83 nmatrix_row_out_n[2]
*84 nmatrix_row_out_n[3]
*85 nmatrix_row_out_n[4]
*86 nmatrix_row_out_n[5]
*87 nmatrix_row_out_n[6]
*88 nmatrix_row_out_n[7]
*89 nmatrix_row_out_n[8]
*90 nmatrix_row_out_n[9]
*91 nmatrix_rowon_out_n[0]
*92 nmatrix_rowon_out_n[10]
*93 nmatrix_rowon_out_n[11]
*94 nmatrix_rowon_out_n[12]
*95 nmatrix_rowon_out_n[13]
*96 nmatrix_rowon_out_n[14]
*97 net196
*98 nmatrix_rowon_out_n[1]
*99 nmatrix_rowon_out_n[2]
*100 nmatrix_rowon_out_n[3]
*101 nmatrix_rowon_out_n[4]
*102 nmatrix_rowon_out_n[5]
*103 nmatrix_rowon_out_n[6]
*104 nmatrix_rowon_out_n[7]
*105 nmatrix_rowon_out_n[8]
*106 nmatrix_rowon_out_n[9]
*107 pmatrix_bincap_out_n[0]
*108 pmatrix_bincap_out_n[1]
*109 pmatrix_bincap_out_n[2]
*110 net197
*111 pmatrix_col_out_n[0]
*112 pmatrix_col_out_n[10]
*113 pmatrix_col_out_n[11]
*114 pmatrix_col_out_n[12]
*115 pmatrix_col_out_n[13]
*116 pmatrix_col_out_n[14]
*117 pmatrix_col_out_n[15]
*118 pmatrix_col_out_n[16]
*119 pmatrix_col_out_n[17]
*120 pmatrix_col_out_n[18]
*121 pmatrix_col_out_n[19]
*122 pmatrix_col_out_n[1]
*123 pmatrix_col_out_n[20]
*124 pmatrix_col_out_n[21]
*125 pmatrix_col_out_n[22]
*126 pmatrix_col_out_n[23]
*127 pmatrix_col_out_n[24]
*128 pmatrix_col_out_n[25]
*129 pmatrix_col_out_n[26]
*130 pmatrix_col_out_n[27]
*131 pmatrix_col_out_n[28]
*132 pmatrix_col_out_n[29]
*133 pmatrix_col_out_n[2]
*134 pmatrix_col_out_n[30]
*135 pmatrix_col_out_n[31]
*136 pmatrix_col_out_n[3]
*137 pmatrix_col_out_n[4]
*138 pmatrix_col_out_n[5]
*139 pmatrix_col_out_n[6]
*140 pmatrix_col_out_n[7]
*141 pmatrix_col_out_n[8]
*142 pmatrix_col_out_n[9]
*143 net195
*144 pmatrix_row_out_n[10]
*145 pmatrix_row_out_n[11]
*146 pmatrix_row_out_n[12]
*147 pmatrix_row_out_n[13]
*148 pmatrix_row_out_n[14]
*149 pmatrix_row_out_n[15]
*150 pmatrix_row_out_n[1]
*151 pmatrix_row_out_n[2]
*152 pmatrix_row_out_n[3]
*153 pmatrix_row_out_n[4]
*154 pmatrix_row_out_n[5]
*155 pmatrix_row_out_n[6]
*156 pmatrix_row_out_n[7]
*157 pmatrix_row_out_n[8]
*158 pmatrix_row_out_n[9]
*159 pmatrix_rowon_out_n[0]
*160 pmatrix_rowon_out_n[10]
*161 pmatrix_rowon_out_n[11]
*162 pmatrix_rowon_out_n[12]
*163 pmatrix_rowon_out_n[13]
*164 pmatrix_rowon_out_n[14]
*165 net198
*166 pmatrix_rowon_out_n[1]
*167 pmatrix_rowon_out_n[2]
*168 pmatrix_rowon_out_n[3]
*169 pmatrix_rowon_out_n[4]
*170 pmatrix_rowon_out_n[5]
*171 pmatrix_rowon_out_n[6]
*172 pmatrix_rowon_out_n[7]
*173 pmatrix_rowon_out_n[8]
*174 pmatrix_rowon_out_n[9]
*175 result_out[0]
*176 result_out[10]
*177 result_out[11]
*178 result_out[12]
*179 result_out[13]
*180 result_out[14]
*181 result_out[15]
*182 result_out[1]
*183 result_out[2]
*184 result_out[3]
*185 result_out[4]
*186 result_out[5]
*187 result_out[6]
*188 result_out[7]
*189 result_out[8]
*190 result_out[9]
*191 rst_n
*192 sample_matrix_out
*193 sample_matrix_out_n
*194 sample_switch_out
*195 sample_switch_out_n
*198 _0000_
*199 _0001_
*200 _0002_
*201 _0003_
*202 _0004_
*203 _0005_
*204 _0006_
*205 _0007_
*206 _0008_
*207 _0009_
*208 _0010_
*209 _0011_
*210 _0012_
*211 _0013_
*212 _0014_
*213 _0015_
*214 _0016_
*215 _0017_
*216 _0018_
*217 _0019_
*218 _0020_
*219 _0021_
*220 _0022_
*221 _0023_
*222 _0024_
*223 _0025_
*224 _0026_
*225 _0027_
*226 _0028_
*227 _0029_
*228 _0030_
*229 _0031_
*230 _0032_
*231 _0033_
*232 _0034_
*233 _0035_
*234 _0036_
*235 _0037_
*236 _0038_
*237 _0039_
*238 _0040_
*239 _0041_
*240 _0042_
*241 _0043_
*242 _0044_
*243 _0045_
*244 _0046_
*245 _0047_
*246 _0048_
*247 _0049_
*248 _0050_
*249 _0051_
*250 _0052_
*251 _0053_
*252 _0054_
*253 _0055_
*254 _0056_
*255 _0057_
*256 _0058_
*257 _0059_
*258 _0060_
*259 _0061_
*260 _0062_
*261 _0063_
*262 _0064_
*263 _0065_
*264 _0066_
*265 _0067_
*266 _0068_
*267 _0069_
*268 _0070_
*269 _0071_
*270 _0072_
*271 _0073_
*272 _0074_
*273 _0075_
*274 _0076_
*275 _0077_
*276 _0078_
*277 _0079_
*278 _0080_
*279 _0081_
*280 _0082_
*281 _0083_
*282 _0084_
*283 _0085_
*284 _0086_
*285 _0087_
*286 _0088_
*287 _0089_
*288 _0090_
*289 _0091_
*290 _0092_
*291 _0093_
*292 _0094_
*293 _0095_
*294 _0096_
*295 _0097_
*296 _0098_
*297 _0099_
*298 _0100_
*299 _0101_
*300 _0102_
*301 _0103_
*302 _0104_
*303 _0105_
*304 _0106_
*305 _0107_
*306 _0108_
*307 _0109_
*308 _0110_
*309 _0111_
*310 _0112_
*311 _0113_
*312 _0114_
*313 _0115_
*314 _0116_
*315 _0117_
*316 _0118_
*317 _0119_
*318 _0120_
*319 _0121_
*320 _0122_
*321 _0123_
*322 _0124_
*323 _0125_
*324 _0126_
*325 _0127_
*326 _0128_
*327 _0129_
*328 _0130_
*329 _0131_
*330 _0132_
*331 _0133_
*332 _0134_
*333 _0135_
*334 _0136_
*335 _0137_
*336 _0138_
*337 _0139_
*338 _0140_
*339 _0141_
*340 _0142_
*341 _0143_
*342 _0144_
*343 _0145_
*344 _0146_
*345 _0147_
*346 _0148_
*347 _0149_
*348 _0150_
*349 _0151_
*350 _0152_
*351 _0153_
*352 _0154_
*353 _0155_
*354 _0156_
*355 _0157_
*356 _0158_
*357 _0159_
*358 _0160_
*359 _0161_
*360 _0162_
*361 _0163_
*362 _0164_
*363 _0165_
*364 _0166_
*365 _0167_
*366 _0168_
*367 _0169_
*368 _0170_
*369 _0171_
*370 _0172_
*371 _0173_
*372 _0174_
*373 _0175_
*374 _0176_
*375 _0177_
*376 _0178_
*377 _0179_
*378 _0180_
*379 _0181_
*380 _0182_
*381 _0183_
*382 _0184_
*383 _0185_
*384 _0186_
*385 _0187_
*386 _0188_
*387 _0189_
*388 _0190_
*389 _0191_
*390 _0192_
*391 _0193_
*392 _0194_
*393 _0195_
*394 _0196_
*395 _0197_
*396 _0198_
*397 _0199_
*398 _0200_
*399 _0201_
*400 _0202_
*401 _0203_
*402 _0204_
*403 _0205_
*404 _0206_
*405 _0207_
*406 _0208_
*407 _0209_
*408 _0210_
*409 _0211_
*410 _0212_
*411 _0213_
*412 _0214_
*413 _0215_
*414 _0216_
*415 _0217_
*416 _0218_
*417 _0219_
*418 _0220_
*419 _0221_
*420 _0222_
*421 _0223_
*422 _0224_
*423 _0225_
*424 _0226_
*425 _0227_
*426 _0228_
*427 _0229_
*428 _0230_
*429 _0231_
*430 _0232_
*431 _0233_
*432 _0234_
*433 _0235_
*434 _0236_
*435 _0237_
*436 _0238_
*437 _0239_
*438 _0240_
*439 _0241_
*440 _0242_
*441 _0243_
*442 _0244_
*443 _0245_
*444 _0246_
*445 _0247_
*446 _0248_
*447 _0249_
*448 _0250_
*449 _0251_
*450 _0252_
*451 _0253_
*452 _0254_
*453 _0255_
*454 _0256_
*455 _0257_
*456 _0258_
*457 _0259_
*458 _0260_
*459 _0261_
*460 _0262_
*461 _0263_
*462 _0264_
*463 _0265_
*464 _0266_
*465 _0267_
*466 _0268_
*467 _0269_
*468 _0270_
*469 _0271_
*470 _0272_
*471 _0273_
*472 _0274_
*473 _0275_
*474 _0276_
*475 _0277_
*476 _0278_
*477 _0279_
*478 _0280_
*479 _0281_
*480 _0282_
*481 _0283_
*482 _0284_
*483 _0285_
*484 _0286_
*485 _0287_
*486 _0288_
*487 _0289_
*488 _0290_
*489 _0291_
*490 _0292_
*491 _0293_
*492 _0294_
*493 _0295_
*494 _0296_
*495 _0297_
*496 _0298_
*497 _0299_
*498 _0300_
*499 _0301_
*500 _0302_
*501 _0303_
*502 _0304_
*503 _0305_
*504 _0306_
*505 _0307_
*506 _0308_
*507 _0309_
*508 _0310_
*509 _0311_
*510 _0312_
*511 _0313_
*512 _0314_
*513 _0315_
*514 _0316_
*515 _0317_
*516 _0318_
*517 _0319_
*518 _0320_
*519 _0321_
*520 _0322_
*521 _0323_
*522 _0324_
*523 _0325_
*524 _0326_
*525 _0327_
*526 _0328_
*527 _0329_
*528 _0330_
*529 _0331_
*530 _0332_
*531 _0333_
*532 _0334_
*533 _0335_
*534 _0336_
*535 _0337_
*536 _0338_
*537 _0339_
*538 _0340_
*539 _0341_
*540 _0342_
*541 _0343_
*542 _0344_
*543 _0345_
*544 _0346_
*545 _0347_
*546 _0348_
*547 _0349_
*548 _0350_
*549 _0351_
*550 _0352_
*551 _0353_
*552 _0354_
*553 _0355_
*554 _0356_
*555 _0357_
*556 _0358_
*557 _0359_
*558 _0360_
*559 _0361_
*560 _0362_
*561 _0363_
*562 _0364_
*563 _0365_
*564 _0366_
*565 _0367_
*566 _0368_
*567 _0369_
*568 _0370_
*569 _0371_
*570 _0372_
*571 _0373_
*572 _0374_
*573 _0375_
*574 _0376_
*575 _0377_
*576 _0378_
*577 _0379_
*578 _0380_
*579 _0381_
*580 _0382_
*581 _0383_
*582 _0384_
*583 _0385_
*584 _0386_
*585 _0387_
*586 _0388_
*587 _0389_
*588 _0390_
*589 _0391_
*590 _0392_
*591 _0393_
*592 _0394_
*593 _0395_
*594 _0396_
*595 _0397_
*596 _0398_
*597 _0399_
*598 _0400_
*599 _0401_
*600 _0402_
*601 _0403_
*602 _0404_
*603 _0405_
*604 _0406_
*605 _0407_
*606 _0408_
*607 _0409_
*608 _0410_
*609 _0411_
*610 _0412_
*611 _0413_
*612 _0414_
*613 _0415_
*614 _0416_
*615 _0417_
*616 _0418_
*617 _0419_
*618 _0420_
*619 _0421_
*620 _0422_
*621 _0423_
*622 _0424_
*623 _0425_
*624 _0426_
*625 _0427_
*626 _0428_
*627 _0429_
*628 _0430_
*629 _0431_
*630 _0432_
*631 _0433_
*632 _0434_
*633 _0435_
*634 _0436_
*635 _0437_
*636 _0438_
*637 _0439_
*638 _0440_
*639 _0441_
*640 _0442_
*641 _0443_
*642 _0444_
*643 _0445_
*644 _0446_
*645 _0447_
*646 _0448_
*647 _0449_
*648 _0450_
*649 _0451_
*650 _0452_
*651 _0453_
*652 _0454_
*653 _0455_
*654 _0456_
*655 _0457_
*656 _0458_
*657 _0459_
*658 _0460_
*659 _0461_
*660 _0462_
*661 _0463_
*662 _0464_
*663 _0465_
*664 _0466_
*665 _0467_
*666 _0468_
*667 _0469_
*668 _0470_
*669 _0471_
*670 _0472_
*671 _0473_
*672 _0474_
*673 _0475_
*674 _0476_
*675 _0477_
*676 _0478_
*677 _0479_
*678 _0480_
*679 _0481_
*680 _0482_
*681 _0483_
*682 _0484_
*683 _0485_
*684 _0486_
*685 _0487_
*686 _0488_
*687 _0489_
*688 _0490_
*689 _0491_
*690 _0492_
*691 _0493_
*692 _0494_
*693 _0495_
*694 _0496_
*695 _0497_
*696 _0498_
*697 _0499_
*698 _0500_
*699 _0501_
*700 _0502_
*701 _0503_
*702 _0504_
*703 _0505_
*704 _0506_
*705 _0507_
*706 _0508_
*707 _0509_
*708 _0510_
*709 _0511_
*710 _0512_
*711 _0513_
*712 _0514_
*713 _0515_
*714 _0516_
*715 _0517_
*716 _0518_
*717 _0519_
*718 _0520_
*719 _0521_
*720 _0522_
*721 _0523_
*722 _0524_
*723 _0525_
*724 _0526_
*725 _0527_
*726 _0528_
*727 _0529_
*728 _0530_
*729 _0531_
*730 _0532_
*731 _0533_
*732 _0534_
*733 _0535_
*734 _0536_
*735 _0537_
*736 _0538_
*737 _0539_
*738 _0540_
*739 _0541_
*740 _0542_
*741 _0543_
*742 _0544_
*743 _0545_
*744 _0546_
*745 _0547_
*746 _0548_
*747 _0549_
*748 _0550_
*749 _0551_
*750 _0552_
*751 _0553_
*752 _0554_
*753 _0555_
*754 _0556_
*755 _0557_
*756 _0558_
*757 _0559_
*758 _0560_
*759 _0561_
*760 _0562_
*761 _0563_
*762 _0564_
*763 _0565_
*764 _0566_
*765 _0567_
*766 _0568_
*767 _0569_
*768 _0570_
*769 _0571_
*770 _0572_
*771 _0573_
*772 _0574_
*773 _0575_
*774 _0576_
*775 _0577_
*776 _0578_
*777 _0579_
*778 _0580_
*779 _0581_
*780 _0582_
*781 _0583_
*782 _0584_
*783 _0585_
*784 _0586_
*785 _0587_
*786 _0588_
*787 _0589_
*788 _0590_
*789 _0591_
*790 _0592_
*791 _0593_
*792 _0594_
*793 _0595_
*794 _0596_
*795 _0597_
*796 _0598_
*797 _0599_
*798 _0600_
*799 _0601_
*800 _0602_
*801 _0603_
*802 _0604_
*803 _0605_
*804 _0606_
*805 _0607_
*806 _0608_
*807 _0609_
*808 _0610_
*809 _0611_
*810 _0612_
*811 _0613_
*812 _0614_
*813 _0615_
*814 _0616_
*815 _0617_
*816 _0618_
*817 _0619_
*818 _0620_
*819 _0621_
*820 _0622_
*821 _0623_
*822 _0624_
*823 _0625_
*824 _0626_
*825 _0627_
*826 _0628_
*827 _0629_
*828 _0630_
*829 _0631_
*830 _0632_
*831 _0633_
*832 _0634_
*833 _0635_
*834 _0636_
*835 _0637_
*836 _0638_
*837 _0639_
*838 _0640_
*839 _0641_
*840 _0642_
*841 _0643_
*842 _0644_
*843 _0645_
*844 _0646_
*845 _0647_
*846 _0648_
*847 _0649_
*848 _0650_
*849 _0651_
*850 _0652_
*851 _0653_
*852 _0654_
*853 _0655_
*854 _0656_
*855 _0657_
*856 _0658_
*857 _0659_
*858 _0660_
*859 _0661_
*860 _0662_
*861 _0663_
*862 _0664_
*863 _0665_
*864 _0666_
*865 _0667_
*866 _0668_
*867 _0669_
*868 _0670_
*869 _0671_
*870 _0672_
*871 _0673_
*872 _0674_
*873 _0675_
*874 _0676_
*875 _0677_
*876 _0678_
*877 _0679_
*878 _0680_
*879 _0681_
*880 _0682_
*881 _0683_
*882 _0684_
*883 _0685_
*884 _0686_
*885 _0687_
*886 _0688_
*887 _0689_
*888 _0690_
*889 _0691_
*890 _0692_
*891 _0693_
*892 _0694_
*893 _0695_
*894 _0696_
*895 _0697_
*896 _0698_
*897 _0699_
*898 _0700_
*899 _0701_
*900 _0702_
*901 _0703_
*902 _0704_
*903 _0705_
*904 _0706_
*905 _0707_
*906 _0708_
*907 _0709_
*908 _0710_
*909 _0711_
*910 _0712_
*911 _0713_
*912 _0714_
*913 _0715_
*914 _0716_
*915 _0717_
*916 _0718_
*917 _0719_
*918 _0720_
*919 _0721_
*920 _0722_
*921 _0723_
*922 _0724_
*923 _0725_
*924 _0726_
*925 _0727_
*926 _0728_
*927 _0729_
*928 _0730_
*929 _0731_
*930 _0732_
*931 _0733_
*932 _0734_
*933 _0735_
*934 _0736_
*935 _0737_
*936 _0738_
*937 _0739_
*938 _0740_
*939 _0741_
*940 _0742_
*941 _0743_
*942 _0744_
*943 _0745_
*944 _0746_
*945 _0747_
*946 _0748_
*947 _0749_
*948 _0750_
*949 _0751_
*950 _0752_
*951 _0753_
*952 _0754_
*953 _0755_
*954 _0756_
*955 _0757_
*956 _0758_
*957 _0759_
*958 _0760_
*959 _0761_
*960 _0762_
*961 _0763_
*962 _0764_
*963 _0765_
*964 _0766_
*965 _0767_
*966 _0768_
*967 _0769_
*968 _0770_
*969 _0771_
*970 _0772_
*971 _0773_
*972 _0774_
*973 _0775_
*974 _0776_
*975 _0777_
*976 _0778_
*977 _0779_
*978 _0780_
*979 _0781_
*980 _0782_
*981 _0783_
*982 _0784_
*983 _0785_
*984 _0786_
*985 _0787_
*986 _0788_
*987 _0789_
*988 _0790_
*989 _0791_
*990 _0792_
*991 _0793_
*992 _0794_
*993 _0795_
*994 _0796_
*995 _0797_
*996 _0798_
*997 _0799_
*998 _0800_
*999 _0801_
*1000 _0802_
*1001 _0803_
*1002 _0804_
*1003 _0805_
*1004 _0806_
*1005 _0807_
*1006 _0808_
*1007 _0809_
*1008 _0810_
*1009 _0811_
*1010 _0812_
*1011 _0813_
*1012 _0814_
*1013 _0815_
*1014 _0816_
*1015 _0817_
*1016 _0818_
*1017 _0819_
*1018 _0820_
*1019 _0821_
*1020 _0822_
*1021 _0823_
*1022 _0824_
*1023 _0825_
*1024 _0826_
*1025 _0827_
*1026 _0828_
*1027 _0829_
*1028 _0830_
*1029 _0831_
*1030 _0832_
*1031 _0833_
*1032 _0834_
*1033 _0835_
*1034 _0836_
*1035 _0837_
*1036 _0838_
*1037 _0839_
*1038 _0840_
*1039 _0841_
*1040 _0842_
*1041 _0843_
*1042 _0844_
*1043 _0845_
*1044 _0846_
*1045 _0847_
*1046 _0848_
*1047 _0849_
*1048 _0850_
*1049 _0851_
*1050 _0852_
*1051 _0853_
*1052 _0854_
*1053 _0855_
*1054 _0856_
*1055 _0857_
*1056 _0858_
*1057 _0859_
*1058 _0860_
*1059 _0861_
*1060 _0862_
*1061 _0863_
*1062 _0864_
*1063 _0865_
*1064 _0866_
*1065 _0867_
*1066 _0868_
*1067 _0869_
*1068 _0870_
*1069 _0871_
*1070 _0872_
*1071 _0873_
*1072 _0874_
*1073 _0875_
*1074 _0876_
*1075 _0877_
*1076 _0878_
*1077 _0879_
*1078 _0880_
*1079 _0881_
*1080 _0882_
*1081 _0883_
*1082 _0884_
*1083 _0885_
*1084 _0886_
*1085 _0887_
*1086 _0888_
*1087 _0889_
*1088 _0890_
*1089 _0891_
*1090 _0892_
*1091 _0893_
*1092 _0894_
*1093 _0895_
*1094 _0896_
*1095 _0897_
*1096 _0898_
*1097 _0899_
*1098 _0900_
*1099 _0901_
*1100 _0902_
*1101 _0903_
*1102 _0904_
*1103 _0905_
*1104 _0906_
*1105 _0907_
*1106 _0908_
*1107 _0909_
*1108 cnb\.average_counter_r\[0\]
*1109 cnb\.average_counter_r\[1\]
*1110 cnb\.average_counter_r\[2\]
*1111 cnb\.average_counter_r\[3\]
*1112 cnb\.average_counter_r\[4\]
*1113 cnb\.average_sum_r\[0\]
*1114 cnb\.average_sum_r\[1\]
*1115 cnb\.average_sum_r\[2\]
*1116 cnb\.average_sum_r\[3\]
*1117 cnb\.average_sum_r\[4\]
*1118 cnb\.conv_finished_r
*1119 cnb\.conversion_ending_w
*1120 cnb\.data_register_r\[0\]
*1121 cnb\.data_register_r\[10\]
*1122 cnb\.data_register_r\[11\]
*1123 cnb\.data_register_r\[1\]
*1124 cnb\.data_register_r\[2\]
*1125 cnb\.data_register_r\[3\]
*1126 cnb\.data_register_r\[4\]
*1127 cnb\.data_register_r\[5\]
*1128 cnb\.data_register_r\[6\]
*1129 cnb\.data_register_r\[7\]
*1130 cnb\.data_register_r\[8\]
*1131 cnb\.data_register_r\[9\]
*1132 cnb\.next_average_counter_w\[0\]
*1133 cnb\.next_average_counter_w\[1\]
*1134 cnb\.next_average_counter_w\[2\]
*1135 cnb\.next_average_counter_w\[3\]
*1136 cnb\.next_average_counter_w\[4\]
*1137 cnb\.next_average_sum_w\[0\]
*1138 cnb\.next_average_sum_w\[1\]
*1139 cnb\.next_average_sum_w\[2\]
*1140 cnb\.next_average_sum_w\[3\]
*1141 cnb\.next_average_sum_w\[4\]
*1142 cnb\.next_data_register_w\[0\]
*1143 cnb\.next_data_register_w\[10\]
*1144 cnb\.next_data_register_w\[11\]
*1145 cnb\.next_data_register_w\[1\]
*1146 cnb\.next_data_register_w\[2\]
*1147 cnb\.next_data_register_w\[3\]
*1148 cnb\.next_data_register_w\[4\]
*1149 cnb\.next_data_register_w\[5\]
*1150 cnb\.next_data_register_w\[6\]
*1151 cnb\.next_data_register_w\[7\]
*1152 cnb\.next_data_register_w\[8\]
*1153 cnb\.next_data_register_w\[9\]
*1154 cnb\.result_out\[0\]
*1155 cnb\.result_out\[10\]
*1156 cnb\.result_out\[11\]
*1157 cnb\.result_out\[1\]
*1158 cnb\.result_out\[2\]
*1159 cnb\.result_out\[3\]
*1160 cnb\.result_out\[4\]
*1161 cnb\.result_out\[5\]
*1162 cnb\.result_out\[6\]
*1163 cnb\.result_out\[7\]
*1164 cnb\.result_out\[8\]
*1165 cnb\.result_out\[9\]
*1166 cnb\.sampled_avg_control_r\[0\]
*1167 cnb\.sampled_avg_control_r\[1\]
*1168 cnb\.sampled_avg_control_r\[2\]
*1169 cnb\.shift_register_r\[10\]
*1170 cnb\.shift_register_r\[11\]
*1171 cnb\.shift_register_r\[12\]
*1172 cnb\.shift_register_r\[13\]
*1173 cnb\.shift_register_r\[14\]
*1174 cnb\.shift_register_r\[15\]
*1175 cnb\.shift_register_r\[1\]
*1176 cnb\.shift_register_r\[2\]
*1177 cnb\.shift_register_r\[3\]
*1178 cnb\.shift_register_r\[4\]
*1179 cnb\.shift_register_r\[5\]
*1180 cnb\.shift_register_r\[6\]
*1181 cnb\.shift_register_r\[7\]
*1182 cnb\.shift_register_r\[8\]
*1183 cnb\.shift_register_r\[9\]
*1184 net1
*1185 net10
*1186 net100
*1187 net101
*1188 net102
*1189 net103
*1190 net104
*1191 net105
*1192 net106
*1193 net107
*1194 net108
*1195 net109
*1196 net11
*1197 net110
*1198 net111
*1199 net112
*1200 net113
*1201 net114
*1202 net115
*1203 net116
*1204 net117
*1205 net118
*1206 net119
*1207 net12
*1208 net120
*1209 net121
*1210 net122
*1211 net123
*1212 net124
*1213 net125
*1214 net126
*1215 net127
*1216 net128
*1217 net129
*1218 net13
*1219 net130
*1220 net131
*1221 net132
*1222 net133
*1223 net134
*1224 net135
*1225 net136
*1226 net137
*1227 net138
*1228 net139
*1229 net14
*1230 net140
*1231 net141
*1232 net142
*1233 net143
*1234 net144
*1235 net145
*1236 net146
*1237 net147
*1238 net148
*1239 net149
*1240 net15
*1241 net150
*1242 net151
*1243 net152
*1244 net153
*1245 net154
*1246 net155
*1247 net156
*1248 net157
*1249 net158
*1250 net159
*1251 net16
*1252 net160
*1253 net161
*1254 net162
*1255 net163
*1256 net164
*1257 net165
*1258 net166
*1259 net167
*1260 net168
*1261 net169
*1262 net17
*1263 net170
*1264 net171
*1265 net172
*1266 net173
*1267 net174
*1268 net175
*1269 net176
*1270 net177
*1271 net178
*1272 net179
*1273 net18
*1274 net180
*1275 net181
*1276 net182
*1277 net183
*1278 net184
*1279 net185
*1280 net186
*1281 net187
*1282 net188
*1283 net189
*1284 net19
*1285 net190
*1286 net191
*1287 net192
*1288 net2
*1289 net20
*1290 net21
*1291 net22
*1292 net23
*1293 net24
*1294 net25
*1295 net26
*1296 net27
*1297 net28
*1298 net29
*1299 net3
*1300 net30
*1301 net31
*1302 net32
*1303 net33
*1304 net34
*1305 net35
*1306 net36
*1307 net37
*1308 net38
*1309 net39
*1310 net4
*1311 net40
*1312 net41
*1313 net42
*1314 net43
*1315 net44
*1316 net45
*1317 net46
*1318 net47
*1319 net48
*1320 net49
*1321 net5
*1322 net50
*1323 net51
*1324 net52
*1325 net53
*1326 net54
*1327 net55
*1328 net56
*1329 net57
*1330 net58
*1331 net59
*1332 net6
*1333 net60
*1334 net61
*1335 net62
*1336 net63
*1337 net64
*1338 net65
*1339 net66
*1340 net67
*1341 net68
*1342 net69
*1343 net7
*1344 net70
*1345 net71
*1346 net72
*1347 net73
*1348 net74
*1349 net75
*1350 net76
*1351 net77
*1352 net78
*1353 net79
*1354 net8
*1355 net80
*1356 net81
*1357 net82
*1358 net83
*1359 net84
*1360 net85
*1361 net86
*1362 net87
*1363 net88
*1364 net89
*1365 net9
*1366 net90
*1367 net91
*1368 net92
*1369 net93
*1370 net94
*1371 net95
*1372 net96
*1373 net97
*1374 net98
*1375 net99
*1376 osr\.next_conv_finished_w
*1377 osr\.next_result_w\[0\]
*1378 osr\.next_result_w\[10\]
*1379 osr\.next_result_w\[11\]
*1380 osr\.next_result_w\[12\]
*1381 osr\.next_result_w\[13\]
*1382 osr\.next_result_w\[14\]
*1383 osr\.next_result_w\[15\]
*1384 osr\.next_result_w\[16\]
*1385 osr\.next_result_w\[17\]
*1386 osr\.next_result_w\[18\]
*1387 osr\.next_result_w\[19\]
*1388 osr\.next_result_w\[1\]
*1389 osr\.next_result_w\[2\]
*1390 osr\.next_result_w\[3\]
*1391 osr\.next_result_w\[4\]
*1392 osr\.next_result_w\[5\]
*1393 osr\.next_result_w\[6\]
*1394 osr\.next_result_w\[7\]
*1395 osr\.next_result_w\[8\]
*1396 osr\.next_result_w\[9\]
*1397 osr\.osr_mode_r\[0\]
*1398 osr\.osr_mode_r\[1\]
*1399 osr\.osr_mode_r\[2\]
*1400 osr\.result_r\[0\]
*1401 osr\.result_r\[10\]
*1402 osr\.result_r\[11\]
*1403 osr\.result_r\[12\]
*1404 osr\.result_r\[13\]
*1405 osr\.result_r\[14\]
*1406 osr\.result_r\[15\]
*1407 osr\.result_r\[16\]
*1408 osr\.result_r\[17\]
*1409 osr\.result_r\[18\]
*1410 osr\.result_r\[19\]
*1411 osr\.result_r\[1\]
*1412 osr\.result_r\[2\]
*1413 osr\.result_r\[3\]
*1414 osr\.result_r\[4\]
*1415 osr\.result_r\[5\]
*1416 osr\.result_r\[6\]
*1417 osr\.result_r\[7\]
*1418 osr\.result_r\[8\]
*1419 osr\.result_r\[9\]
*1420 osr\.sample_count_r\[0\]
*1421 osr\.sample_count_r\[1\]
*1422 osr\.sample_count_r\[2\]
*1423 osr\.sample_count_r\[3\]
*1424 osr\.sample_count_r\[4\]
*1425 osr\.sample_count_r\[5\]
*1426 osr\.sample_count_r\[6\]
*1427 osr\.sample_count_r\[7\]
*1428 osr\.sample_count_r\[8\]
*1429 ANTENNA_1
*1430 ANTENNA_2
*1431 ANTENNA_3
*1432 ANTENNA_4
*1433 ANTENNA_5
*1434 ANTENNA_6
*1435 FILLER_0_103
*1436 FILLER_0_11
*1437 FILLER_0_111
*1438 FILLER_0_113
*1439 FILLER_0_125
*1440 FILLER_0_130
*1441 FILLER_0_139
*1442 FILLER_0_141
*1443 FILLER_0_149
*1444 FILLER_0_158
*1445 FILLER_0_167
*1446 FILLER_0_169
*1447 FILLER_0_177
*1448 FILLER_0_183
*1449 FILLER_0_19
*1450 FILLER_0_191
*1451 FILLER_0_195
*1452 FILLER_0_197
*1453 FILLER_0_204
*1454 FILLER_0_212
*1455 FILLER_0_220
*1456 FILLER_0_225
*1457 FILLER_0_232
*1458 FILLER_0_240
*1459 FILLER_0_248
*1460 FILLER_0_253
*1461 FILLER_0_260
*1462 FILLER_0_268
*1463 FILLER_0_27
*1464 FILLER_0_276
*1465 FILLER_0_281
*1466 FILLER_0_289
*1467 FILLER_0_29
*1468 FILLER_0_297
*1469 FILLER_0_3
*1470 FILLER_0_305
*1471 FILLER_0_309
*1472 FILLER_0_316
*1473 FILLER_0_324
*1474 FILLER_0_39
*1475 FILLER_0_47
*1476 FILLER_0_55
*1477 FILLER_0_57
*1478 FILLER_0_67
*1479 FILLER_0_75
*1480 FILLER_0_83
*1481 FILLER_0_85
*1482 FILLER_0_95
*1483 FILLER_10_103
*1484 FILLER_10_129
*1485 FILLER_10_13
*1486 FILLER_10_139
*1487 FILLER_10_141
*1488 FILLER_10_149
*1489 FILLER_10_160
*1490 FILLER_10_169
*1491 FILLER_10_178
*1492 FILLER_10_185
*1493 FILLER_10_189
*1494 FILLER_10_195
*1495 FILLER_10_197
*1496 FILLER_10_20
*1497 FILLER_10_219
*1498 FILLER_10_223
*1499 FILLER_10_246
*1500 FILLER_10_253
*1501 FILLER_10_265
*1502 FILLER_10_27
*1503 FILLER_10_277
*1504 FILLER_10_289
*1505 FILLER_10_29
*1506 FILLER_10_3
*1507 FILLER_10_301
*1508 FILLER_10_307
*1509 FILLER_10_309
*1510 FILLER_10_321
*1511 FILLER_10_331
*1512 FILLER_10_40
*1513 FILLER_10_48
*1514 FILLER_10_58
*1515 FILLER_10_7
*1516 FILLER_10_70
*1517 FILLER_10_81
*1518 FILLER_10_85
*1519 FILLER_10_95
*1520 FILLER_11_10
*1521 FILLER_11_106
*1522 FILLER_11_111
*1523 FILLER_11_113
*1524 FILLER_11_125
*1525 FILLER_11_136
*1526 FILLER_11_146
*1527 FILLER_11_161
*1528 FILLER_11_167
*1529 FILLER_11_169
*1530 FILLER_11_179
*1531 FILLER_11_202
*1532 FILLER_11_211
*1533 FILLER_11_221
*1534 FILLER_11_225
*1535 FILLER_11_242
*1536 FILLER_11_251
*1537 FILLER_11_258
*1538 FILLER_11_270
*1539 FILLER_11_278
*1540 FILLER_11_281
*1541 FILLER_11_293
*1542 FILLER_11_3
*1543 FILLER_11_305
*1544 FILLER_11_317
*1545 FILLER_11_331
*1546 FILLER_11_37
*1547 FILLER_11_41
*1548 FILLER_11_47
*1549 FILLER_11_55
*1550 FILLER_11_57
*1551 FILLER_11_68
*1552 FILLER_11_74
*1553 FILLER_11_84
*1554 FILLER_11_95
*1555 FILLER_12_109
*1556 FILLER_12_119
*1557 FILLER_12_130
*1558 FILLER_12_139
*1559 FILLER_12_141
*1560 FILLER_12_153
*1561 FILLER_12_157
*1562 FILLER_12_16
*1563 FILLER_12_167
*1564 FILLER_12_190
*1565 FILLER_12_197
*1566 FILLER_12_207
*1567 FILLER_12_216
*1568 FILLER_12_227
*1569 FILLER_12_251
*1570 FILLER_12_253
*1571 FILLER_12_258
*1572 FILLER_12_27
*1573 FILLER_12_270
*1574 FILLER_12_282
*1575 FILLER_12_29
*1576 FILLER_12_294
*1577 FILLER_12_3
*1578 FILLER_12_306
*1579 FILLER_12_309
*1580 FILLER_12_321
*1581 FILLER_12_331
*1582 FILLER_12_37
*1583 FILLER_12_48
*1584 FILLER_12_57
*1585 FILLER_12_67
*1586 FILLER_12_76
*1587 FILLER_12_83
*1588 FILLER_12_85
*1589 FILLER_12_9
*1590 FILLER_12_92
*1591 FILLER_12_99
*1592 FILLER_13_101
*1593 FILLER_13_111
*1594 FILLER_13_113
*1595 FILLER_13_118
*1596 FILLER_13_127
*1597 FILLER_13_13
*1598 FILLER_13_137
*1599 FILLER_13_147
*1600 FILLER_13_157
*1601 FILLER_13_167
*1602 FILLER_13_169
*1603 FILLER_13_175
*1604 FILLER_13_197
*1605 FILLER_13_20
*1606 FILLER_13_203
*1607 FILLER_13_218
*1608 FILLER_13_223
*1609 FILLER_13_225
*1610 FILLER_13_234
*1611 FILLER_13_242
*1612 FILLER_13_248
*1613 FILLER_13_260
*1614 FILLER_13_272
*1615 FILLER_13_281
*1616 FILLER_13_293
*1617 FILLER_13_3
*1618 FILLER_13_305
*1619 FILLER_13_31
*1620 FILLER_13_317
*1621 FILLER_13_329
*1622 FILLER_13_38
*1623 FILLER_13_49
*1624 FILLER_13_55
*1625 FILLER_13_57
*1626 FILLER_13_68
*1627 FILLER_13_7
*1628 FILLER_13_82
*1629 FILLER_13_92
*1630 FILLER_14_10
*1631 FILLER_14_102
*1632 FILLER_14_111
*1633 FILLER_14_121
*1634 FILLER_14_139
*1635 FILLER_14_141
*1636 FILLER_14_147
*1637 FILLER_14_157
*1638 FILLER_14_166
*1639 FILLER_14_18
*1640 FILLER_14_181
*1641 FILLER_14_188
*1642 FILLER_14_195
*1643 FILLER_14_197
*1644 FILLER_14_211
*1645 FILLER_14_221
*1646 FILLER_14_229
*1647 FILLER_14_236
*1648 FILLER_14_243
*1649 FILLER_14_251
*1650 FILLER_14_253
*1651 FILLER_14_265
*1652 FILLER_14_27
*1653 FILLER_14_277
*1654 FILLER_14_289
*1655 FILLER_14_29
*1656 FILLER_14_3
*1657 FILLER_14_301
*1658 FILLER_14_307
*1659 FILLER_14_309
*1660 FILLER_14_321
*1661 FILLER_14_331
*1662 FILLER_14_38
*1663 FILLER_14_44
*1664 FILLER_14_53
*1665 FILLER_14_64
*1666 FILLER_14_70
*1667 FILLER_14_78
*1668 FILLER_14_85
*1669 FILLER_14_97
*1670 FILLER_15_10
*1671 FILLER_15_103
*1672 FILLER_15_111
*1673 FILLER_15_113
*1674 FILLER_15_121
*1675 FILLER_15_132
*1676 FILLER_15_142
*1677 FILLER_15_151
*1678 FILLER_15_167
*1679 FILLER_15_169
*1680 FILLER_15_180
*1681 FILLER_15_20
*1682 FILLER_15_203
*1683 FILLER_15_211
*1684 FILLER_15_218
*1685 FILLER_15_225
*1686 FILLER_15_239
*1687 FILLER_15_251
*1688 FILLER_15_263
*1689 FILLER_15_275
*1690 FILLER_15_279
*1691 FILLER_15_281
*1692 FILLER_15_29
*1693 FILLER_15_293
*1694 FILLER_15_3
*1695 FILLER_15_305
*1696 FILLER_15_317
*1697 FILLER_15_331
*1698 FILLER_15_44
*1699 FILLER_15_55
*1700 FILLER_15_57
*1701 FILLER_15_66
*1702 FILLER_15_73
*1703 FILLER_15_82
*1704 FILLER_15_89
*1705 FILLER_15_99
*1706 FILLER_16_111
*1707 FILLER_16_119
*1708 FILLER_16_136
*1709 FILLER_16_141
*1710 FILLER_16_151
*1711 FILLER_16_16
*1712 FILLER_16_161
*1713 FILLER_16_168
*1714 FILLER_16_177
*1715 FILLER_16_186
*1716 FILLER_16_195
*1717 FILLER_16_197
*1718 FILLER_16_203
*1719 FILLER_16_207
*1720 FILLER_16_229
*1721 FILLER_16_236
*1722 FILLER_16_248
*1723 FILLER_16_253
*1724 FILLER_16_265
*1725 FILLER_16_27
*1726 FILLER_16_277
*1727 FILLER_16_289
*1728 FILLER_16_29
*1729 FILLER_16_3
*1730 FILLER_16_301
*1731 FILLER_16_307
*1732 FILLER_16_309
*1733 FILLER_16_321
*1734 FILLER_16_329
*1735 FILLER_16_33
*1736 FILLER_16_41
*1737 FILLER_16_54
*1738 FILLER_16_58
*1739 FILLER_16_67
*1740 FILLER_16_7
*1741 FILLER_16_82
*1742 FILLER_16_85
*1743 FILLER_16_97
*1744 FILLER_17_103
*1745 FILLER_17_111
*1746 FILLER_17_113
*1747 FILLER_17_135
*1748 FILLER_17_144
*1749 FILLER_17_156
*1750 FILLER_17_167
*1751 FILLER_17_169
*1752 FILLER_17_175
*1753 FILLER_17_187
*1754 FILLER_17_199
*1755 FILLER_17_208
*1756 FILLER_17_217
*1757 FILLER_17_223
*1758 FILLER_17_225
*1759 FILLER_17_237
*1760 FILLER_17_249
*1761 FILLER_17_25
*1762 FILLER_17_261
*1763 FILLER_17_273
*1764 FILLER_17_279
*1765 FILLER_17_281
*1766 FILLER_17_293
*1767 FILLER_17_3
*1768 FILLER_17_305
*1769 FILLER_17_317
*1770 FILLER_17_32
*1771 FILLER_17_323
*1772 FILLER_17_327
*1773 FILLER_17_331
*1774 FILLER_17_55
*1775 FILLER_17_57
*1776 FILLER_17_62
*1777 FILLER_17_85
*1778 FILLER_17_94
*1779 FILLER_18_109
*1780 FILLER_18_119
*1781 FILLER_18_134
*1782 FILLER_18_14
*1783 FILLER_18_141
*1784 FILLER_18_148
*1785 FILLER_18_171
*1786 FILLER_18_177
*1787 FILLER_18_189
*1788 FILLER_18_195
*1789 FILLER_18_197
*1790 FILLER_18_205
*1791 FILLER_18_221
*1792 FILLER_18_23
*1793 FILLER_18_234
*1794 FILLER_18_247
*1795 FILLER_18_251
*1796 FILLER_18_253
*1797 FILLER_18_269
*1798 FILLER_18_27
*1799 FILLER_18_281
*1800 FILLER_18_29
*1801 FILLER_18_293
*1802 FILLER_18_3
*1803 FILLER_18_305
*1804 FILLER_18_309
*1805 FILLER_18_315
*1806 FILLER_18_319
*1807 FILLER_18_323
*1808 FILLER_18_331
*1809 FILLER_18_35
*1810 FILLER_18_44
*1811 FILLER_18_53
*1812 FILLER_18_62
*1813 FILLER_18_66
*1814 FILLER_18_7
*1815 FILLER_18_73
*1816 FILLER_18_83
*1817 FILLER_18_85
*1818 FILLER_18_89
*1819 FILLER_18_98