*SPEF "ieee 1481-1999"
*DESIGN "adc_clkgen_with_edgedetect"
*DATE "11:11:11 Fri 11 11, 1111"
*VENDOR "OpenRCX"
*PROGRAM "Parallel Extraction"
*VERSION "1.0"
*DESIGN_FLOW "NAME_SCOPE LOCAL" "PIN_CAP NONE"
*DIVIDER /
*DELIMITER :
*BUS_DELIMITER []
*T_UNIT 1 NS
*C_UNIT 1 PF
*R_UNIT 1 OHM
*L_UNIT 1 HENRY

*NAME_MAP
*3 clk_comp_out
*4 clk_dig_out
*5 dlycontrol1_in[0]
*6 dlycontrol1_in[1]
*7 dlycontrol1_in[2]
*8 dlycontrol1_in[3]
*9 dlycontrol1_in[4]
*10 dlycontrol2_in[0]
*11 dlycontrol2_in[1]
*12 dlycontrol2_in[2]
*13 dlycontrol2_in[3]
*14 dlycontrol2_in[4]
*15 dlycontrol3_in[0]
*16 dlycontrol3_in[1]
*17 dlycontrol3_in[2]
*18 dlycontrol3_in[3]
*19 dlycontrol3_in[4]
*20 dlycontrol4_in[0]
*21 dlycontrol4_in[1]
*22 dlycontrol4_in[2]
*23 dlycontrol4_in[3]
*24 dlycontrol4_in[4]
*25 dlycontrol4_in[5]
*26 ena_in
*27 enable_dlycontrol_in
*28 ndecision_finish_in
*29 nsample_n_in
*30 nsample_n_out
*31 nsample_p_in
*32 nsample_p_out
*33 sample_n_in
*34 sample_n_out
*35 sample_p_in
*36 sample_p_out
*37 start_conv_in
*40 clkgen\.clk_comp_out
*41 clkgen\.clk_dig_delayed_w
*42 clkgen\.clk_dig_out
*43 clkgen\.delay_155ns_1\.bypass_enable_w\[0\]
*44 clkgen\.delay_155ns_1\.bypass_enable_w\[1\]
*45 clkgen\.delay_155ns_1\.bypass_enable_w\[2\]
*46 clkgen\.delay_155ns_1\.bypass_enable_w\[3\]
*47 clkgen\.delay_155ns_1\.bypass_enable_w\[4\]
*48 clkgen\.delay_155ns_1\.enable_dlycontrol_w
*49 clkgen\.delay_155ns_1\.genblk1\[0\]\.dly_binary\.bypass_in
*50 clkgen\.delay_155ns_1\.genblk1\[0\]\.dly_binary\.in
*51 clkgen\.delay_155ns_1\.genblk1\[0\]\.dly_binary\.out
*52 clkgen\.delay_155ns_1\.genblk1\[0\]\.dly_binary\.signal_w\[0\]
*53 clkgen\.delay_155ns_1\.genblk1\[0\]\.dly_binary\.signal_w\[1\]
*54 clkgen\.delay_155ns_1\.genblk1\[1\]\.dly_binary\.bypass_in
*55 clkgen\.delay_155ns_1\.genblk1\[1\]\.dly_binary\.out
*56 clkgen\.delay_155ns_1\.genblk1\[1\]\.dly_binary\.signal_w\[0\]
*57 clkgen\.delay_155ns_1\.genblk1\[1\]\.dly_binary\.signal_w\[1\]
*58 clkgen\.delay_155ns_1\.genblk1\[1\]\.dly_binary\.signal_w\[2\]
*59 clkgen\.delay_155ns_1\.genblk1\[2\]\.dly_binary\.bypass_in
*60 clkgen\.delay_155ns_1\.genblk1\[2\]\.dly_binary\.out
*61 clkgen\.delay_155ns_1\.genblk1\[2\]\.dly_binary\.signal_w\[0\]
*62 clkgen\.delay_155ns_1\.genblk1\[2\]\.dly_binary\.signal_w\[1\]
*63 clkgen\.delay_155ns_1\.genblk1\[2\]\.dly_binary\.signal_w\[2\]
*64 clkgen\.delay_155ns_1\.genblk1\[2\]\.dly_binary\.signal_w\[3\]
*65 clkgen\.delay_155ns_1\.genblk1\[2\]\.dly_binary\.signal_w\[4\]
*66 clkgen\.delay_155ns_1\.genblk1\[3\]\.dly_binary\.bypass_in
*67 clkgen\.delay_155ns_1\.genblk1\[3\]\.dly_binary\.out
*68 clkgen\.delay_155ns_1\.genblk1\[3\]\.dly_binary\.signal_w\[0\]
*69 clkgen\.delay_155ns_1\.genblk1\[3\]\.dly_binary\.signal_w\[1\]
*70 clkgen\.delay_155ns_1\.genblk1\[3\]\.dly_binary\.signal_w\[2\]
*71 clkgen\.delay_155ns_1\.genblk1\[3\]\.dly_binary\.signal_w\[3\]
*72 clkgen\.delay_155ns_1\.genblk1\[3\]\.dly_binary\.signal_w\[4\]
*73 clkgen\.delay_155ns_1\.genblk1\[3\]\.dly_binary\.signal_w\[5\]
*74 clkgen\.delay_155ns_1\.genblk1\[3\]\.dly_binary\.signal_w\[6\]
*75 clkgen\.delay_155ns_1\.genblk1\[3\]\.dly_binary\.signal_w\[7\]
*76 clkgen\.delay_155ns_1\.genblk1\[3\]\.dly_binary\.signal_w\[8\]
*77 clkgen\.delay_155ns_1\.genblk1\[4\]\.dly_binary\.bypass_in
*78 clkgen\.delay_155ns_1\.genblk1\[4\]\.dly_binary\.out
*79 clkgen\.delay_155ns_1\.genblk1\[4\]\.dly_binary\.signal_w\[0\]
*80 clkgen\.delay_155ns_1\.genblk1\[4\]\.dly_binary\.signal_w\[10\]
*81 clkgen\.delay_155ns_1\.genblk1\[4\]\.dly_binary\.signal_w\[11\]
*82 clkgen\.delay_155ns_1\.genblk1\[4\]\.dly_binary\.signal_w\[12\]
*83 clkgen\.delay_155ns_1\.genblk1\[4\]\.dly_binary\.signal_w\[13\]
*84 clkgen\.delay_155ns_1\.genblk1\[4\]\.dly_binary\.signal_w\[14\]
*85 clkgen\.delay_155ns_1\.genblk1\[4\]\.dly_binary\.signal_w\[15\]
*86 clkgen\.delay_155ns_1\.genblk1\[4\]\.dly_binary\.signal_w\[16\]
*87 clkgen\.delay_155ns_1\.genblk1\[4\]\.dly_binary\.signal_w\[1\]
*88 clkgen\.delay_155ns_1\.genblk1\[4\]\.dly_binary\.signal_w\[2\]
*89 clkgen\.delay_155ns_1\.genblk1\[4\]\.dly_binary\.signal_w\[3\]
*90 clkgen\.delay_155ns_1\.genblk1\[4\]\.dly_binary\.signal_w\[4\]
*91 clkgen\.delay_155ns_1\.genblk1\[4\]\.dly_binary\.signal_w\[5\]
*92 clkgen\.delay_155ns_1\.genblk1\[4\]\.dly_binary\.signal_w\[6\]
*93 clkgen\.delay_155ns_1\.genblk1\[4\]\.dly_binary\.signal_w\[7\]
*94 clkgen\.delay_155ns_1\.genblk1\[4\]\.dly_binary\.signal_w\[8\]
*95 clkgen\.delay_155ns_1\.genblk1\[4\]\.dly_binary\.signal_w\[9\]
*96 clkgen\.delay_155ns_2\.bypass_enable_w\[0\]
*97 clkgen\.delay_155ns_2\.bypass_enable_w\[1\]
*98 clkgen\.delay_155ns_2\.bypass_enable_w\[2\]
*99 clkgen\.delay_155ns_2\.bypass_enable_w\[3\]
*100 clkgen\.delay_155ns_2\.bypass_enable_w\[4\]
*101 clkgen\.delay_155ns_2\.enable_dlycontrol_w
*102 clkgen\.delay_155ns_2\.genblk1\[0\]\.dly_binary\.bypass_in
*103 clkgen\.delay_155ns_2\.genblk1\[0\]\.dly_binary\.out
*104 clkgen\.delay_155ns_2\.genblk1\[0\]\.dly_binary\.signal_w\[0\]
*105 clkgen\.delay_155ns_2\.genblk1\[0\]\.dly_binary\.signal_w\[1\]
*106 clkgen\.delay_155ns_2\.genblk1\[1\]\.dly_binary\.bypass_in
*107 clkgen\.delay_155ns_2\.genblk1\[1\]\.dly_binary\.out
*108 clkgen\.delay_155ns_2\.genblk1\[1\]\.dly_binary\.signal_w\[0\]
*109 clkgen\.delay_155ns_2\.genblk1\[1\]\.dly_binary\.signal_w\[1\]
*110 clkgen\.delay_155ns_2\.genblk1\[1\]\.dly_binary\.signal_w\[2\]
*111 clkgen\.delay_155ns_2\.genblk1\[2\]\.dly_binary\.bypass_in
*112 clkgen\.delay_155ns_2\.genblk1\[2\]\.dly_binary\.out
*113 clkgen\.delay_155ns_2\.genblk1\[2\]\.dly_binary\.signal_w\[0\]
*114 clkgen\.delay_155ns_2\.genblk1\[2\]\.dly_binary\.signal_w\[1\]
*115 clkgen\.delay_155ns_2\.genblk1\[2\]\.dly_binary\.signal_w\[2\]
*116 clkgen\.delay_155ns_2\.genblk1\[2\]\.dly_binary\.signal_w\[3\]
*117 clkgen\.delay_155ns_2\.genblk1\[2\]\.dly_binary\.signal_w\[4\]
*118 clkgen\.delay_155ns_2\.genblk1\[3\]\.dly_binary\.bypass_in
*119 clkgen\.delay_155ns_2\.genblk1\[3\]\.dly_binary\.out
*120 clkgen\.delay_155ns_2\.genblk1\[3\]\.dly_binary\.signal_w\[0\]
*121 clkgen\.delay_155ns_2\.genblk1\[3\]\.dly_binary\.signal_w\[1\]
*122 clkgen\.delay_155ns_2\.genblk1\[3\]\.dly_binary\.signal_w\[2\]
*123 clkgen\.delay_155ns_2\.genblk1\[3\]\.dly_binary\.signal_w\[3\]
*124 clkgen\.delay_155ns_2\.genblk1\[3\]\.dly_binary\.signal_w\[4\]
*125 clkgen\.delay_155ns_2\.genblk1\[3\]\.dly_binary\.signal_w\[5\]
*126 clkgen\.delay_155ns_2\.genblk1\[3\]\.dly_binary\.signal_w\[6\]
*127 clkgen\.delay_155ns_2\.genblk1\[3\]\.dly_binary\.signal_w\[7\]
*128 clkgen\.delay_155ns_2\.genblk1\[3\]\.dly_binary\.signal_w\[8\]
*129 clkgen\.delay_155ns_2\.genblk1\[4\]\.dly_binary\.bypass_in
*130 clkgen\.delay_155ns_2\.genblk1\[4\]\.dly_binary\.signal_w\[0\]
*131 clkgen\.delay_155ns_2\.genblk1\[4\]\.dly_binary\.signal_w\[10\]
*132 clkgen\.delay_155ns_2\.genblk1\[4\]\.dly_binary\.signal_w\[11\]
*133 clkgen\.delay_155ns_2\.genblk1\[4\]\.dly_binary\.signal_w\[12\]
*134 clkgen\.delay_155ns_2\.genblk1\[4\]\.dly_binary\.signal_w\[13\]
*135 clkgen\.delay_155ns_2\.genblk1\[4\]\.dly_binary\.signal_w\[14\]
*136 clkgen\.delay_155ns_2\.genblk1\[4\]\.dly_binary\.signal_w\[15\]
*137 clkgen\.delay_155ns_2\.genblk1\[4\]\.dly_binary\.signal_w\[16\]
*138 clkgen\.delay_155ns_2\.genblk1\[4\]\.dly_binary\.signal_w\[1\]
*139 clkgen\.delay_155ns_2\.genblk1\[4\]\.dly_binary\.signal_w\[2\]
*140 clkgen\.delay_155ns_2\.genblk1\[4\]\.dly_binary\.signal_w\[3\]
*141 clkgen\.delay_155ns_2\.genblk1\[4\]\.dly_binary\.signal_w\[4\]
*142 clkgen\.delay_155ns_2\.genblk1\[4\]\.dly_binary\.signal_w\[5\]
*143 clkgen\.delay_155ns_2\.genblk1\[4\]\.dly_binary\.signal_w\[6\]
*144 clkgen\.delay_155ns_2\.genblk1\[4\]\.dly_binary\.signal_w\[7\]
*145 clkgen\.delay_155ns_2\.genblk1\[4\]\.dly_binary\.signal_w\[8\]
*146 clkgen\.delay_155ns_2\.genblk1\[4\]\.dly_binary\.signal_w\[9\]
*147 clkgen\.delay_155ns_3\.bypass_enable_w\[0\]
*148 clkgen\.delay_155ns_3\.bypass_enable_w\[1\]
*149 clkgen\.delay_155ns_3\.bypass_enable_w\[2\]
*150 clkgen\.delay_155ns_3\.bypass_enable_w\[3\]
*151 clkgen\.delay_155ns_3\.bypass_enable_w\[4\]
*152 clkgen\.delay_155ns_3\.enable_dlycontrol_w
*153 clkgen\.delay_155ns_3\.genblk1\[0\]\.dly_binary\.bypass_in
*154 clkgen\.delay_155ns_3\.genblk1\[0\]\.dly_binary\.in
*155 clkgen\.delay_155ns_3\.genblk1\[0\]\.dly_binary\.out
*156 clkgen\.delay_155ns_3\.genblk1\[0\]\.dly_binary\.signal_w\[0\]
*157 clkgen\.delay_155ns_3\.genblk1\[0\]\.dly_binary\.signal_w\[1\]
*158 clkgen\.delay_155ns_3\.genblk1\[1\]\.dly_binary\.bypass_in
*159 clkgen\.delay_155ns_3\.genblk1\[1\]\.dly_binary\.out
*160 clkgen\.delay_155ns_3\.genblk1\[1\]\.dly_binary\.signal_w\[0\]
*161 clkgen\.delay_155ns_3\.genblk1\[1\]\.dly_binary\.signal_w\[1\]
*162 clkgen\.delay_155ns_3\.genblk1\[1\]\.dly_binary\.signal_w\[2\]
*163 clkgen\.delay_155ns_3\.genblk1\[2\]\.dly_binary\.bypass_in
*164 clkgen\.delay_155ns_3\.genblk1\[2\]\.dly_binary\.out
*165 clkgen\.delay_155ns_3\.genblk1\[2\]\.dly_binary\.signal_w\[0\]
*166 clkgen\.delay_155ns_3\.genblk1\[2\]\.dly_binary\.signal_w\[1\]
*167 clkgen\.delay_155ns_3\.genblk1\[2\]\.dly_binary\.signal_w\[2\]
*168 clkgen\.delay_155ns_3\.genblk1\[2\]\.dly_binary\.signal_w\[3\]
*169 clkgen\.delay_155ns_3\.genblk1\[2\]\.dly_binary\.signal_w\[4\]
*170 clkgen\.delay_155ns_3\.genblk1\[3\]\.dly_binary\.bypass_in
*171 clkgen\.delay_155ns_3\.genblk1\[3\]\.dly_binary\.out
*172 clkgen\.delay_155ns_3\.genblk1\[3\]\.dly_binary\.signal_w\[0\]
*173 clkgen\.delay_155ns_3\.genblk1\[3\]\.dly_binary\.signal_w\[1\]
*174 clkgen\.delay_155ns_3\.genblk1\[3\]\.dly_binary\.signal_w\[2\]
*175 clkgen\.delay_155ns_3\.genblk1\[3\]\.dly_binary\.signal_w\[3\]
*176 clkgen\.delay_155ns_3\.genblk1\[3\]\.dly_binary\.signal_w\[4\]
*177 clkgen\.delay_155ns_3\.genblk1\[3\]\.dly_binary\.signal_w\[5\]
*178 clkgen\.delay_155ns_3\.genblk1\[3\]\.dly_binary\.signal_w\[6\]
*179 clkgen\.delay_155ns_3\.genblk1\[3\]\.dly_binary\.signal_w\[7\]
*180 clkgen\.delay_155ns_3\.genblk1\[3\]\.dly_binary\.signal_w\[8\]
*181 clkgen\.delay_155ns_3\.genblk1\[4\]\.dly_binary\.bypass_in
*182 clkgen\.delay_155ns_3\.genblk1\[4\]\.dly_binary\.signal_w\[0\]
*183 clkgen\.delay_155ns_3\.genblk1\[4\]\.dly_binary\.signal_w\[10\]
*184 clkgen\.delay_155ns_3\.genblk1\[4\]\.dly_binary\.signal_w\[11\]
*185 clkgen\.delay_155ns_3\.genblk1\[4\]\.dly_binary\.signal_w\[12\]
*186 clkgen\.delay_155ns_3\.genblk1\[4\]\.dly_binary\.signal_w\[13\]
*187 clkgen\.delay_155ns_3\.genblk1\[4\]\.dly_binary\.signal_w\[14\]
*188 clkgen\.delay_155ns_3\.genblk1\[4\]\.dly_binary\.signal_w\[15\]
*189 clkgen\.delay_155ns_3\.genblk1\[4\]\.dly_binary\.signal_w\[16\]
*190 clkgen\.delay_155ns_3\.genblk1\[4\]\.dly_binary\.signal_w\[1\]
*191 clkgen\.delay_155ns_3\.genblk1\[4\]\.dly_binary\.signal_w\[2\]
*192 clkgen\.delay_155ns_3\.genblk1\[4\]\.dly_binary\.signal_w\[3\]
*193 clkgen\.delay_155ns_3\.genblk1\[4\]\.dly_binary\.signal_w\[4\]
*194 clkgen\.delay_155ns_3\.genblk1\[4\]\.dly_binary\.signal_w\[5\]
*195 clkgen\.delay_155ns_3\.genblk1\[4\]\.dly_binary\.signal_w\[6\]
*196 clkgen\.delay_155ns_3\.genblk1\[4\]\.dly_binary\.signal_w\[7\]
*197 clkgen\.delay_155ns_3\.genblk1\[4\]\.dly_binary\.signal_w\[8\]
*198 clkgen\.delay_155ns_3\.genblk1\[4\]\.dly_binary\.signal_w\[9\]
*199 clkgen\.enable_loop_in
*200 edgedetect\.dly_315ns_1\.bypass_enable_w\[0\]
*201 edgedetect\.dly_315ns_1\.bypass_enable_w\[1\]
*202 edgedetect\.dly_315ns_1\.bypass_enable_w\[2\]
*203 edgedetect\.dly_315ns_1\.bypass_enable_w\[3\]
*204 edgedetect\.dly_315ns_1\.bypass_enable_w\[4\]
*205 edgedetect\.dly_315ns_1\.bypass_enable_w\[5\]
*206 edgedetect\.dly_315ns_1\.enable_dlycontrol_w
*207 edgedetect\.dly_315ns_1\.genblk1\[0\]\.dly_binary\.bypass_in
*208 edgedetect\.dly_315ns_1\.genblk1\[0\]\.dly_binary\.in
*209 edgedetect\.dly_315ns_1\.genblk1\[0\]\.dly_binary\.out
*210 edgedetect\.dly_315ns_1\.genblk1\[0\]\.dly_binary\.signal_w\[0\]
*211 edgedetect\.dly_315ns_1\.genblk1\[0\]\.dly_binary\.signal_w\[1\]
*212 edgedetect\.dly_315ns_1\.genblk1\[1\]\.dly_binary\.bypass_in
*213 edgedetect\.dly_315ns_1\.genblk1\[1\]\.dly_binary\.out
*214 edgedetect\.dly_315ns_1\.genblk1\[1\]\.dly_binary\.signal_w\[0\]
*215 edgedetect\.dly_315ns_1\.genblk1\[1\]\.dly_binary\.signal_w\[1\]
*216 edgedetect\.dly_315ns_1\.genblk1\[1\]\.dly_binary\.signal_w\[2\]
*217 edgedetect\.dly_315ns_1\.genblk1\[2\]\.dly_binary\.bypass_in
*218 edgedetect\.dly_315ns_1\.genblk1\[2\]\.dly_binary\.out
*219 edgedetect\.dly_315ns_1\.genblk1\[2\]\.dly_binary\.signal_w\[0\]
*220 edgedetect\.dly_315ns_1\.genblk1\[2\]\.dly_binary\.signal_w\[1\]
*221 edgedetect\.dly_315ns_1\.genblk1\[2\]\.dly_binary\.signal_w\[2\]
*222 edgedetect\.dly_315ns_1\.genblk1\[2\]\.dly_binary\.signal_w\[3\]
*223 edgedetect\.dly_315ns_1\.genblk1\[2\]\.dly_binary\.signal_w\[4\]
*224 edgedetect\.dly_315ns_1\.genblk1\[3\]\.dly_binary\.bypass_in
*225 edgedetect\.dly_315ns_1\.genblk1\[3\]\.dly_binary\.out
*226 edgedetect\.dly_315ns_1\.genblk1\[3\]\.dly_binary\.signal_w\[0\]
*227 edgedetect\.dly_315ns_1\.genblk1\[3\]\.dly_binary\.signal_w\[1\]
*228 edgedetect\.dly_315ns_1\.genblk1\[3\]\.dly_binary\.signal_w\[2\]
*229 edgedetect\.dly_315ns_1\.genblk1\[3\]\.dly_binary\.signal_w\[3\]
*230 edgedetect\.dly_315ns_1\.genblk1\[3\]\.dly_binary\.signal_w\[4\]
*231 edgedetect\.dly_315ns_1\.genblk1\[3\]\.dly_binary\.signal_w\[5\]
*232 edgedetect\.dly_315ns_1\.genblk1\[3\]\.dly_binary\.signal_w\[6\]
*233 edgedetect\.dly_315ns_1\.genblk1\[3\]\.dly_binary\.signal_w\[7\]
*234 edgedetect\.dly_315ns_1\.genblk1\[3\]\.dly_binary\.signal_w\[8\]
*235 edgedetect\.dly_315ns_1\.genblk1\[4\]\.dly_binary\.bypass_in
*236 edgedetect\.dly_315ns_1\.genblk1\[4\]\.dly_binary\.out
*237 edgedetect\.dly_315ns_1\.genblk1\[4\]\.dly_binary\.signal_w\[0\]
*238 edgedetect\.dly_315ns_1\.genblk1\[4\]\.dly_binary\.signal_w\[10\]
*239 edgedetect\.dly_315ns_1\.genblk1\[4\]\.dly_binary\.signal_w\[11\]
*240 edgedetect\.dly_315ns_1\.genblk1\[4\]\.dly_binary\.signal_w\[12\]
*241 edgedetect\.dly_315ns_1\.genblk1\[4\]\.dly_binary\.signal_w\[13\]
*242 edgedetect\.dly_315ns_1\.genblk1\[4\]\.dly_binary\.signal_w\[14\]
*243 edgedetect\.dly_315ns_1\.genblk1\[4\]\.dly_binary\.signal_w\[15\]
*244 edgedetect\.dly_315ns_1\.genblk1\[4\]\.dly_binary\.signal_w\[16\]
*245 edgedetect\.dly_315ns_1\.genblk1\[4\]\.dly_binary\.signal_w\[1\]
*246 edgedetect\.dly_315ns_1\.genblk1\[4\]\.dly_binary\.signal_w\[2\]
*247 edgedetect\.dly_315ns_1\.genblk1\[4\]\.dly_binary\.signal_w\[3\]
*248 edgedetect\.dly_315ns_1\.genblk1\[4\]\.dly_binary\.signal_w\[4\]
*249 edgedetect\.dly_315ns_1\.genblk1\[4\]\.dly_binary\.signal_w\[5\]
*250 edgedetect\.dly_315ns_1\.genblk1\[4\]\.dly_binary\.signal_w\[6\]
*251 edgedetect\.dly_315ns_1\.genblk1\[4\]\.dly_binary\.signal_w\[7\]
*252 edgedetect\.dly_315ns_1\.genblk1\[4\]\.dly_binary\.signal_w\[8\]
*253 edgedetect\.dly_315ns_1\.genblk1\[4\]\.dly_binary\.signal_w\[9\]
*254 edgedetect\.dly_315ns_1\.genblk1\[5\]\.dly_binary\.bypass_in
*255 edgedetect\.dly_315ns_1\.genblk1\[5\]\.dly_binary\.out
*256 edgedetect\.dly_315ns_1\.genblk1\[5\]\.dly_binary\.signal_w\[0\]
*257 edgedetect\.dly_315ns_1\.genblk1\[5\]\.dly_binary\.signal_w\[10\]
*258 edgedetect\.dly_315ns_1\.genblk1\[5\]\.dly_binary\.signal_w\[11\]
*259 edgedetect\.dly_315ns_1\.genblk1\[5\]\.dly_binary\.signal_w\[12\]
*260 edgedetect\.dly_315ns_1\.genblk1\[5\]\.dly_binary\.signal_w\[13\]
*261 edgedetect\.dly_315ns_1\.genblk1\[5\]\.dly_binary\.signal_w\[14\]
*262 edgedetect\.dly_315ns_1\.genblk1\[5\]\.dly_binary\.signal_w\[15\]
*263 edgedetect\.dly_315ns_1\.genblk1\[5\]\.dly_binary\.signal_w\[16\]
*264 edgedetect\.dly_315ns_1\.genblk1\[5\]\.dly_binary\.signal_w\[17\]
*265 edgedetect\.dly_315ns_1\.genblk1\[5\]\.dly_binary\.signal_w\[18\]
*266 edgedetect\.dly_315ns_1\.genblk1\[5\]\.dly_binary\.signal_w\[19\]
*267 edgedetect\.dly_315ns_1\.genblk1\[5\]\.dly_binary\.signal_w\[1\]
*268 edgedetect\.dly_315ns_1\.genblk1\[5\]\.dly_binary\.signal_w\[20\]
*269 edgedetect\.dly_315ns_1\.genblk1\[5\]\.dly_binary\.signal_w\[21\]
*270 edgedetect\.dly_315ns_1\.genblk1\[5\]\.dly_binary\.signal_w\[22\]
*271 edgedetect\.dly_315ns_1\.genblk1\[5\]\.dly_binary\.signal_w\[23\]
*272 edgedetect\.dly_315ns_1\.genblk1\[5\]\.dly_binary\.signal_w\[24\]
*273 edgedetect\.dly_315ns_1\.genblk1\[5\]\.dly_binary\.signal_w\[25\]
*274 edgedetect\.dly_315ns_1\.genblk1\[5\]\.dly_binary\.signal_w\[26\]
*275 edgedetect\.dly_315ns_1\.genblk1\[5\]\.dly_binary\.signal_w\[27\]
*276 edgedetect\.dly_315ns_1\.genblk1\[5\]\.dly_binary\.signal_w\[28\]
*277 edgedetect\.dly_315ns_1\.genblk1\[5\]\.dly_binary\.signal_w\[29\]
*278 edgedetect\.dly_315ns_1\.genblk1\[5\]\.dly_binary\.signal_w\[2\]
*279 edgedetect\.dly_315ns_1\.genblk1\[5\]\.dly_binary\.signal_w\[30\]
*280 edgedetect\.dly_315ns_1\.genblk1\[5\]\.dly_binary\.signal_w\[31\]
*281 edgedetect\.dly_315ns_1\.genblk1\[5\]\.dly_binary\.signal_w\[32\]
*282 edgedetect\.dly_315ns_1\.genblk1\[5\]\.dly_binary\.signal_w\[3\]
*283 edgedetect\.dly_315ns_1\.genblk1\[5\]\.dly_binary\.signal_w\[4\]
*284 edgedetect\.dly_315ns_1\.genblk1\[5\]\.dly_binary\.signal_w\[5\]
*285 edgedetect\.dly_315ns_1\.genblk1\[5\]\.dly_binary\.signal_w\[6\]
*286 edgedetect\.dly_315ns_1\.genblk1\[5\]\.dly_binary\.signal_w\[7\]
*287 edgedetect\.dly_315ns_1\.genblk1\[5\]\.dly_binary\.signal_w\[8\]
*288 edgedetect\.dly_315ns_1\.genblk1\[5\]\.dly_binary\.signal_w\[9\]
*289 edgedetect\.ena_in
*290 edgedetect\.start_conv_edge_w
*291 ANTENNA_clkgen\.clkdig_inverter_A
*292 ANTENNA_clkgen\.delay_155ns_1\.enablebuffer_A
*293 ANTENNA_clkgen\.delay_155ns_1\.genblk1\[0\]\.control_invert_A
*294 ANTENNA_clkgen\.delay_155ns_1\.genblk1\[0\]\.dly_binary\.and_bypass_switch_A_N
*295 ANTENNA_clkgen\.delay_155ns_1\.genblk1\[0\]\.dly_binary\.out_mux_S
*296 ANTENNA_clkgen\.delay_155ns_1\.genblk1\[1\]\.control_invert_A
*297 ANTENNA_clkgen\.delay_155ns_1\.genblk1\[1\]\.dly_binary\.and_bypass_switch_A_N
*298 ANTENNA_clkgen\.delay_155ns_1\.genblk1\[1\]\.dly_binary\.out_mux_S
*299 ANTENNA_clkgen\.delay_155ns_1\.genblk1\[2\]\.control_invert_A
*300 ANTENNA_clkgen\.delay_155ns_1\.genblk1\[2\]\.dly_binary\.and_bypass_switch_A_N
*301 ANTENNA_clkgen\.delay_155ns_1\.genblk1\[2\]\.dly_binary\.out_mux_S
*302 ANTENNA_clkgen\.delay_155ns_1\.genblk1\[3\]\.control_invert_A
*303 ANTENNA_clkgen\.delay_155ns_1\.genblk1\[3\]\.dly_binary\.and_bypass_switch_A_N
*304 ANTENNA_clkgen\.delay_155ns_1\.genblk1\[3\]\.dly_binary\.out_mux_S
*305 ANTENNA_clkgen\.delay_155ns_1\.genblk1\[4\]\.control_invert_A
*306 ANTENNA_clkgen\.delay_155ns_1\.genblk1\[4\]\.dly_binary\.and_bypass_switch_A_N
*307 ANTENNA_clkgen\.delay_155ns_1\.genblk1\[4\]\.dly_binary\.and_bypass_switch_B
*308 ANTENNA_clkgen\.delay_155ns_1\.genblk1\[4\]\.dly_binary\.out_mux_A0
*309 ANTENNA_clkgen\.delay_155ns_1\.genblk1\[4\]\.dly_binary\.out_mux_A1
*310 ANTENNA_clkgen\.delay_155ns_1\.genblk1\[4\]\.dly_binary\.out_mux_S
*311 ANTENNA_clkgen\.delay_155ns_2\.enablebuffer_A
*312 ANTENNA_clkgen\.delay_155ns_2\.genblk1\[0\]\.control_invert_A
*313 ANTENNA_clkgen\.delay_155ns_2\.genblk1\[0\]\.dly_binary\.and_bypass_switch_A_N
*314 ANTENNA_clkgen\.delay_155ns_2\.genblk1\[0\]\.dly_binary\.and_bypass_switch_B
*315 ANTENNA_clkgen\.delay_155ns_2\.genblk1\[0\]\.dly_binary\.out_mux_A1
*316 ANTENNA_clkgen\.delay_155ns_2\.genblk1\[0\]\.dly_binary\.out_mux_S
*317 ANTENNA_clkgen\.delay_155ns_2\.genblk1\[1\]\.control_invert_A
*318 ANTENNA_clkgen\.delay_155ns_2\.genblk1\[1\]\.dly_binary\.and_bypass_switch_A_N
*319 ANTENNA_clkgen\.delay_155ns_2\.genblk1\[1\]\.dly_binary\.out_mux_S
*320 ANTENNA_clkgen\.delay_155ns_2\.genblk1\[2\]\.control_invert_A
*321 ANTENNA_clkgen\.delay_155ns_2\.genblk1\[2\]\.dly_binary\.and_bypass_switch_A_N
*322 ANTENNA_clkgen\.delay_155ns_2\.genblk1\[2\]\.dly_binary\.out_mux_S
*323 ANTENNA_clkgen\.delay_155ns_2\.genblk1\[3\]\.control_invert_A
*324 ANTENNA_clkgen\.delay_155ns_2\.genblk1\[3\]\.dly_binary\.and_bypass_switch_A_N
*325 ANTENNA_clkgen\.delay_155ns_2\.genblk1\[3\]\.dly_binary\.out_mux_S
*326 ANTENNA_clkgen\.delay_155ns_2\.genblk1\[4\]\.control_invert_A
*327 ANTENNA_clkgen\.delay_155ns_2\.genblk1\[4\]\.dly_binary\.and_bypass_switch_A_N
*328 ANTENNA_clkgen\.delay_155ns_2\.genblk1\[4\]\.dly_binary\.out_mux_A0
*329 ANTENNA_clkgen\.delay_155ns_2\.genblk1\[4\]\.dly_binary\.out_mux_S
*330 ANTENNA_clkgen\.delay_155ns_3\.enablebuffer_A
*331 ANTENNA_clkgen\.delay_155ns_3\.genblk1\[0\]\.bypass_enable_A
*332 ANTENNA_clkgen\.delay_155ns_3\.genblk1\[0\]\.control_invert_A
*333 ANTENNA_clkgen\.delay_155ns_3\.genblk1\[1\]\.bypass_enable_A
*334 ANTENNA_clkgen\.delay_155ns_3\.genblk1\[1\]\.control_invert_A
*335 ANTENNA_clkgen\.delay_155ns_3\.genblk1\[2\]\.bypass_enable_A
*336 ANTENNA_clkgen\.delay_155ns_3\.genblk1\[2\]\.bypass_enable_B
*337 ANTENNA_clkgen\.delay_155ns_3\.genblk1\[2\]\.control_invert_A
*338 ANTENNA_clkgen\.delay_155ns_3\.genblk1\[3\]\.bypass_enable_A
*339 ANTENNA_clkgen\.delay_155ns_3\.genblk1\[3\]\.control_invert_A
*340 ANTENNA_clkgen\.delay_155ns_3\.genblk1\[4\]\.bypass_enable_A
*341 ANTENNA_clkgen\.delay_155ns_3\.genblk1\[4\]\.control_invert_A
*342 ANTENNA_edgedetect\.dly_315ns_1\.enablebuffer_A
*343 ANTENNA_edgedetect\.dly_315ns_1\.genblk1\[0\]\.bypass_enable_A
*344 ANTENNA_edgedetect\.dly_315ns_1\.genblk1\[0\]\.control_invert_A
*345 ANTENNA_edgedetect\.dly_315ns_1\.genblk1\[0\]\.dly_binary\.and_bypass_switch_B
*346 ANTENNA_edgedetect\.dly_315ns_1\.genblk1\[0\]\.dly_binary\.out_mux_A1
*347 ANTENNA_edgedetect\.dly_315ns_1\.genblk1\[1\]\.bypass_enable_A
*348 ANTENNA_edgedetect\.dly_315ns_1\.genblk1\[1\]\.control_invert_A
*349 ANTENNA_edgedetect\.dly_315ns_1\.genblk1\[1\]\.dly_binary\.and_bypass_switch_A_N
*350 ANTENNA_edgedetect\.dly_315ns_1\.genblk1\[1\]\.dly_binary\.out_mux_S
*351 ANTENNA_edgedetect\.dly_315ns_1\.genblk1\[2\]\.bypass_enable_A
*352 ANTENNA_edgedetect\.dly_315ns_1\.genblk1\[2\]\.control_invert_A
*353 ANTENNA_edgedetect\.dly_315ns_1\.genblk1\[3\]\.bypass_enable_A
*354 ANTENNA_edgedetect\.dly_315ns_1\.genblk1\[3\]\.control_invert_A
*355 ANTENNA_edgedetect\.dly_315ns_1\.genblk1\[3\]\.dly_binary\.and_bypass_switch_A_N
*356 ANTENNA_edgedetect\.dly_315ns_1\.genblk1\[3\]\.dly_binary\.out_mux_S
*357 ANTENNA_edgedetect\.dly_315ns_1\.genblk1\[4\]\.bypass_enable_A
*358 ANTENNA_edgedetect\.dly_315ns_1\.genblk1\[4\]\.control_invert_A
*359 ANTENNA_edgedetect\.dly_315ns_1\.genblk1\[4\]\.dly_binary\.and_bypass_switch_A_N
*360 ANTENNA_edgedetect\.dly_315ns_1\.genblk1\[4\]\.dly_binary\.out_mux_S
*361 ANTENNA_edgedetect\.dly_315ns_1\.genblk1\[5\]\.bypass_enable_A
*362 ANTENNA_edgedetect\.dly_315ns_1\.genblk1\[5\]\.control_invert_A
*363 ANTENNA_edgedetect\.dly_315ns_1\.genblk1\[5\]\.dly_binary\.out_mux_A0
*364 ANTENNA_edgedetect\.nor1_B_N
*365 ANTENNA_inbuf_1_A
*366 ANTENNA_inbuf_2_A
*367 ANTENNA_inbuf_3_A
*368 ANTENNA_outbuf_1_A
*369 ANTENNA_outbuf_3_A
*370 ANTENNA_outbuf_4_A
*371 ANTENNA_outbuf_5_A
*372 ANTENNA_outbuf_6_A
*373 FILLER_0_122
*374 FILLER_0_125
*375 FILLER_0_153
*376 FILLER_0_156
*377 FILLER_0_183
*378 FILLER_0_187
*379 FILLER_0_19
*380 FILLER_0_194
*381 FILLER_0_201
*382 FILLER_0_208
*383 FILLER_0_215
*384 FILLER_0_218
*385 FILLER_0_226
*386 FILLER_0_232
*387 FILLER_0_238
*388 FILLER_0_244
*389 FILLER_0_249
*390 FILLER_0_253
*391 FILLER_0_259
*392 FILLER_0_265
*393 FILLER_0_271
*394 FILLER_0_280
*395 FILLER_0_29
*396 FILLER_0_292
*397 FILLER_0_3
*398 FILLER_0_304
*399 FILLER_0_311
*400 FILLER_0_319
*401 FILLER_0_32
*402 FILLER_0_60
*403 FILLER_0_63
*404 FILLER_0_9
*405 FILLER_0_91
*406 FILLER_0_94
*407 FILLER_10_121
*408 FILLER_10_127
*409 FILLER_10_153
*410 FILLER_10_156
*411 FILLER_10_16
*412 FILLER_10_167
*413 FILLER_10_174
*414 FILLER_10_178
*415 FILLER_10_204
*416 FILLER_10_213
*417 FILLER_10_218
*418 FILLER_10_245
*419 FILLER_10_251
*420 FILLER_10_277
*421 FILLER_10_280
*422 FILLER_10_29
*423 FILLER_10_3
*424 FILLER_10_307
*425 FILLER_10_313
*426 FILLER_10_319
*427 FILLER_10_32
*428 FILLER_10_59
*429 FILLER_10_65
*430 FILLER_10_9
*431 FILLER_10_91
*432 FILLER_10_94
*433 FILLER_11_122
*434 FILLER_11_125
*435 FILLER_11_152
*436 FILLER_11_181
*437 FILLER_11_185
*438 FILLER_11_187
*439 FILLER_11_214
*440 FILLER_11_220
*441 FILLER_11_246
*442 FILLER_11_249
*443 FILLER_11_276
*444 FILLER_11_282
*445 FILLER_11_288
*446 FILLER_11_294
*447 FILLER_11_3
*448 FILLER_11_300
*449 FILLER_11_306
*450 FILLER_11_31
*451 FILLER_11_311
*452 FILLER_11_315
*453 FILLER_11_319
*454 FILLER_11_60
*455 FILLER_11_63
*456 FILLER_11_90
*457 FILLER_11_96
*458 FILLER_12_124
*459 FILLER_12_153
*460 FILLER_12_156
*461 FILLER_12_163
*462 FILLER_12_169
*463 FILLER_12_17
*464 FILLER_12_195
*465 FILLER_12_204
*466 FILLER_12_213
*467 FILLER_12_218
*468 FILLER_12_245
*469 FILLER_12_252
*470 FILLER_12_258
*471 FILLER_12_264
*472 FILLER_12_270
*473 FILLER_12_276
*474 FILLER_12_280
*475 FILLER_12_284
*476 FILLER_12_29
*477 FILLER_12_292
*478 FILLER_12_3
*479 FILLER_12_318
*480 FILLER_12_32
*481 FILLER_12_36
*482 FILLER_12_62
*483 FILLER_12_7
*484 FILLER_12_91
*485 FILLER_12_94
*486 FILLER_12_98
*487 FILLER_13_117
*488 FILLER_13_123
*489 FILLER_13_125
*490 FILLER_13_153
*491 FILLER_13_17
*492 FILLER_13_184
*493 FILLER_13_187
*494 FILLER_13_194
*495 FILLER_13_198
*496 FILLER_13_224
*497 FILLER_13_233
*498 FILLER_13_240
*499 FILLER_13_246
*500 FILLER_13_249
*501 FILLER_13_254
*502 FILLER_13_260
*503 FILLER_13_266
*504 FILLER_13_27
*505 FILLER_13_272
*506 FILLER_13_278
*507 FILLER_13_282
*508 FILLER_13_3
*509 FILLER_13_308
*510 FILLER_13_311
*511 FILLER_13_315
*512 FILLER_13_319
*513 FILLER_13_56
*514 FILLER_13_63
*515 FILLER_13_7
*516 FILLER_13_74
*517 FILLER_13_84
*518 FILLER_14_124
*519 FILLER_14_153
*520 FILLER_14_156
*521 FILLER_14_16
*522 FILLER_14_163
*523 FILLER_14_170
*524 FILLER_14_199
*525 FILLER_14_208
*526 FILLER_14_215
*527 FILLER_14_218
*528 FILLER_14_245
*529 FILLER_14_274
*530 FILLER_14_278
*531 FILLER_14_280
*532 FILLER_14_29
*533 FILLER_14_3
*534 FILLER_14_307
*535 FILLER_14_313
*536 FILLER_14_319
*537 FILLER_14_32
*538 FILLER_14_59
*539 FILLER_14_88
*540 FILLER_14_9
*541 FILLER_14_92
*542 FILLER_14_94
*543 FILLER_14_98
*544 FILLER_15_122
*545 FILLER_15_125
*546 FILLER_15_133
*547 FILLER_15_143
*548 FILLER_15_149
*549 FILLER_15_175
*550 FILLER_15_184
*551 FILLER_15_187
*552 FILLER_15_214
*553 FILLER_15_243
*554 FILLER_15_247
*555 FILLER_15_249
*556 FILLER_15_276
*557 FILLER_15_3
*558 FILLER_15_305
*559 FILLER_15_309
*560 FILLER_15_31
*561 FILLER_15_311
*562 FILLER_15_315
*563 FILLER_15_319
*564 FILLER_15_60
*565 FILLER_15_63
*566 FILLER_15_67
*567 FILLER_15_93
*568 FILLER_16_121
*569 FILLER_16_127
*570 FILLER_16_153
*571 FILLER_16_156
*572 FILLER_16_16
*573 FILLER_16_164
*574 FILLER_16_168
*575 FILLER_16_194
*576 FILLER_16_203
*577 FILLER_16_212
*578 FILLER_16_216
*579 FILLER_16_218
*580 FILLER_16_247
*581 FILLER_16_251
*582 FILLER_16_277
*583 FILLER_16_280
*584 FILLER_16_285
*585 FILLER_16_29
*586 FILLER_16_291
*587 FILLER_16_3
*588 FILLER_16_317
*589 FILLER_16_32
*590 FILLER_16_43
*591 FILLER_16_49
*592 FILLER_16_56
*593 FILLER_16_85
*594 FILLER_16_91
*595 FILLER_16_94
*596 FILLER_17_107
*597 FILLER_17_117
*598 FILLER_17_123
*599 FILLER_17_125
*600 FILLER_17_152
*601 FILLER_17_183
*602 FILLER_17_187
*603 FILLER_17_214
*604 FILLER_17_243
*605 FILLER_17_247
*606 FILLER_17_249
*607 FILLER_17_276
*608 FILLER_17_3
*609 FILLER_17_305
*610 FILLER_17_309
*611 FILLER_17_31
*612 FILLER_17_311
*613 FILLER_17_315
*614 FILLER_17_319
*615 FILLER_17_60
*616 FILLER_17_63
*617 FILLER_17_71
*618 FILLER_17_78
*619 FILLER_18_124
*620 FILLER_18_153
*621 FILLER_18_156
*622 FILLER_18_16
*623 FILLER_18_183
*624 FILLER_18_189
*625 FILLER_18_215
*626 FILLER_18_218
*627 FILLER_18_245
*628 FILLER_18_274
*629 FILLER_18_278
*630 FILLER_18_280
*631 FILLER_18_29
*632 FILLER_18_3
*633 FILLER_18_307
*634 FILLER_18_313
*635 FILLER_18_319
*636 FILLER_18_32
*637 FILLER_18_36
*638 FILLER_18_62
*639 FILLER_18_91
*640 FILLER_18_94
*641 FILLER_18_98
*642 FILLER_19_122
*643 FILLER_19_125
*644 FILLER_19_153
*645 FILLER_19_182
*646 FILLER_19_187
*647 FILLER_19_214
*648 FILLER_19_243
*649 FILLER_19_247
*650 FILLER_19_249
*651 FILLER_19_276
*652 FILLER_19_282
*653 FILLER_19_3
*654 FILLER_19_308
*655 FILLER_19_31
*656 FILLER_19_311
*657 FILLER_19_315
*658 FILLER_19_319
*659 FILLER_19_60
*660 FILLER_19_63
*661 FILLER_19_67
*662 FILLER_19_93
*663 FILLER_1_122
*664 FILLER_1_125
*665 FILLER_1_133
*666 FILLER_1_143
*667 FILLER_1_172
*668 FILLER_1_182
*669 FILLER_1_187
*670 FILLER_1_214
*671 FILLER_1_221
*672 FILLER_1_227
*673 FILLER_1_233
*674 FILLER_1_239
*675 FILLER_1_245
*676 FILLER_1_249
*677 FILLER_1_253
*678 FILLER_1_259
*679 FILLER_1_265
*680 FILLER_1_271
*681 FILLER_1_283
*682 FILLER_1_295
*683 FILLER_1_3
*684 FILLER_1_307
*685 FILLER_1_31
*686 FILLER_1_311
*687 FILLER_1_319
*688 FILLER_1_60
*689 FILLER_1_63
*690 FILLER_1_67
*691 FILLER_1_93
*692 FILLER_20_122
*693 FILLER_20_125
*694 FILLER_20_152
*695 FILLER_20_156
*696 FILLER_20_164
*697 FILLER_20_173
*698 FILLER_20_177
*699 FILLER_20_184
*700 FILLER_20_187
*701 FILLER_20_19
*702 FILLER_20_214
*703 FILLER_20_218
*704 FILLER_20_245
*705 FILLER_20_249
*706 FILLER_20_276
*707 FILLER_20_280
*708 FILLER_20_285
*709 FILLER_20_29
*710 FILLER_20_291
*711 FILLER_20_297
*712 FILLER_20_3
*713 FILLER_20_303
*714 FILLER_20_309
*715 FILLER_20_311
*716 FILLER_20_315
*717 FILLER_20_319
*718 FILLER_20_32
*719 FILLER_20_60
*720 FILLER_20_63
*721 FILLER_20_9
*722 FILLER_20_91
*723 FILLER_20_94
*724 FILLER_2_121
*725 FILLER_2_127
*726 FILLER_2_153
*727 FILLER_2_156
*728 FILLER_2_16
*729 FILLER_2_161
*730 FILLER_2_165
*731 FILLER_2_191
*732 FILLER_2_200
*733 FILLER_2_209
*734 FILLER_2_215
*735 FILLER_2_218
*736 FILLER_2_223
*737 FILLER_2_230
*738 FILLER_2_236
*739 FILLER_2_242
*740 FILLER_2_248
*741 FILLER_2_254
*742 FILLER_2_260
*743 FILLER_2_266
*744 FILLER_2_272
*745 FILLER_2_278
*746 FILLER_2_280
*747 FILLER_2_29
*748 FILLER_2_292
*749 FILLER_2_3
*750 FILLER_2_304
*751 FILLER_2_316
*752 FILLER_2_32
*753 FILLER_2_36
*754 FILLER_2_62
*755 FILLER_2_9
*756 FILLER_2_91
*757 FILLER_2_94
*758 FILLER_3_122
*759 FILLER_3_125
*760 FILLER_3_152
*761 FILLER_3_181
*762 FILLER_3_185
*763 FILLER_3_187
*764 FILLER_3_214
*765 FILLER_3_243
*766 FILLER_3_247
*767 FILLER_3_249
*768 FILLER_3_253
*769 FILLER_3_259
*770 FILLER_3_265
*771 FILLER_3_271