*SPEF "ieee 1481-1999"
*DESIGN "adc_clkgen_with_edgedetect"
*DATE "11:11:11 Fri 11 11, 1111"
*VENDOR "OpenRCX"
*PROGRAM "Parallel Extraction"
*VERSION "1.0"
*DESIGN_FLOW "NAME_SCOPE LOCAL" "PIN_CAP NONE"
*DIVIDER /
*DELIMITER :
*BUS_DELIMITER []
*T_UNIT 1 NS
*C_UNIT 1 PF
*R_UNIT 1 OHM
*L_UNIT 1 HENRY

*NAME_MAP
*3 clk_comp
*4 clk_dig
*5 dlycontrol1[0]
*6 dlycontrol1[1]
*7 dlycontrol1[2]
*8 dlycontrol1[3]
*9 dlycontrol1[4]
*10 dlycontrol2[0]
*11 dlycontrol2[1]
*12 dlycontrol2[2]
*13 dlycontrol2[3]
*14 dlycontrol2[4]
*15 dlycontrol3[0]
*16 dlycontrol3[1]
*17 dlycontrol3[2]
*18 dlycontrol3[3]
*19 dlycontrol3[4]
*20 dlycontrol4[0]
*21 dlycontrol4[1]
*22 dlycontrol4[2]
*23 dlycontrol4[3]
*24 dlycontrol4[4]
*25 dlycontrol4[5]
*26 ena_in
*27 enable_dlycontrol
*28 ndecision_finish
*29 nsample_n
*30 nsample_n_buf
*31 nsample_p
*32 nsample_p_buf
*33 sample_n
*34 sample_n_buf
*35 sample_p
*36 sample_p_buf
*37 start_conv
*40 clkgen\._clk_dig_delayed_
*41 clkgen\._ndecision_finish_delayed_
*42 clkgen\._net_1_
*43 clkgen\.clk_comp
*44 clkgen\.clk_dig
*45 clkgen\.delay_155ns_1\._enable_dlycontrol_
*46 clkgen\.delay_155ns_1\.genblk1\[0\]\.dly_binary\._siga_\[0\]
*47 clkgen\.delay_155ns_1\.genblk1\[0\]\.dly_binary\._siga_\[1\]
*48 clkgen\.delay_155ns_1\.genblk1\[0\]\.dly_binary\.bypass
*49 clkgen\.delay_155ns_1\.genblk1\[0\]\.dly_binary\.in
*50 clkgen\.delay_155ns_1\.genblk1\[0\]\.dly_binary\.out
*51 clkgen\.delay_155ns_1\.genblk1\[1\]\.dly_binary\._siga_\[0\]
*52 clkgen\.delay_155ns_1\.genblk1\[1\]\.dly_binary\._siga_\[1\]
*53 clkgen\.delay_155ns_1\.genblk1\[1\]\.dly_binary\._siga_\[2\]
*54 clkgen\.delay_155ns_1\.genblk1\[1\]\.dly_binary\.bypass
*55 clkgen\.delay_155ns_1\.genblk1\[1\]\.dly_binary\.out
*56 clkgen\.delay_155ns_1\.genblk1\[2\]\.dly_binary\._siga_\[0\]
*57 clkgen\.delay_155ns_1\.genblk1\[2\]\.dly_binary\._siga_\[1\]
*58 clkgen\.delay_155ns_1\.genblk1\[2\]\.dly_binary\._siga_\[2\]
*59 clkgen\.delay_155ns_1\.genblk1\[2\]\.dly_binary\._siga_\[3\]
*60 clkgen\.delay_155ns_1\.genblk1\[2\]\.dly_binary\._siga_\[4\]
*61 clkgen\.delay_155ns_1\.genblk1\[2\]\.dly_binary\.bypass
*62 clkgen\.delay_155ns_1\.genblk1\[2\]\.dly_binary\.out
*63 clkgen\.delay_155ns_1\.genblk1\[3\]\.dly_binary\._siga_\[0\]
*64 clkgen\.delay_155ns_1\.genblk1\[3\]\.dly_binary\._siga_\[1\]
*65 clkgen\.delay_155ns_1\.genblk1\[3\]\.dly_binary\._siga_\[2\]
*66 clkgen\.delay_155ns_1\.genblk1\[3\]\.dly_binary\._siga_\[3\]
*67 clkgen\.delay_155ns_1\.genblk1\[3\]\.dly_binary\._siga_\[4\]
*68 clkgen\.delay_155ns_1\.genblk1\[3\]\.dly_binary\._siga_\[5\]
*69 clkgen\.delay_155ns_1\.genblk1\[3\]\.dly_binary\._siga_\[6\]
*70 clkgen\.delay_155ns_1\.genblk1\[3\]\.dly_binary\._siga_\[7\]
*71 clkgen\.delay_155ns_1\.genblk1\[3\]\.dly_binary\._siga_\[8\]
*72 clkgen\.delay_155ns_1\.genblk1\[3\]\.dly_binary\.bypass
*73 clkgen\.delay_155ns_1\.genblk1\[3\]\.dly_binary\.out
*74 clkgen\.delay_155ns_1\.genblk1\[4\]\.dly_binary\._siga_\[0\]
*75 clkgen\.delay_155ns_1\.genblk1\[4\]\.dly_binary\._siga_\[10\]
*76 clkgen\.delay_155ns_1\.genblk1\[4\]\.dly_binary\._siga_\[11\]
*77 clkgen\.delay_155ns_1\.genblk1\[4\]\.dly_binary\._siga_\[12\]
*78 clkgen\.delay_155ns_1\.genblk1\[4\]\.dly_binary\._siga_\[13\]
*79 clkgen\.delay_155ns_1\.genblk1\[4\]\.dly_binary\._siga_\[14\]
*80 clkgen\.delay_155ns_1\.genblk1\[4\]\.dly_binary\._siga_\[15\]
*81 clkgen\.delay_155ns_1\.genblk1\[4\]\.dly_binary\._siga_\[16\]
*82 clkgen\.delay_155ns_1\.genblk1\[4\]\.dly_binary\._siga_\[1\]
*83 clkgen\.delay_155ns_1\.genblk1\[4\]\.dly_binary\._siga_\[2\]
*84 clkgen\.delay_155ns_1\.genblk1\[4\]\.dly_binary\._siga_\[3\]
*85 clkgen\.delay_155ns_1\.genblk1\[4\]\.dly_binary\._siga_\[4\]
*86 clkgen\.delay_155ns_1\.genblk1\[4\]\.dly_binary\._siga_\[5\]
*87 clkgen\.delay_155ns_1\.genblk1\[4\]\.dly_binary\._siga_\[6\]
*88 clkgen\.delay_155ns_1\.genblk1\[4\]\.dly_binary\._siga_\[7\]
*89 clkgen\.delay_155ns_1\.genblk1\[4\]\.dly_binary\._siga_\[8\]
*90 clkgen\.delay_155ns_1\.genblk1\[4\]\.dly_binary\._siga_\[9\]
*91 clkgen\.delay_155ns_1\.genblk1\[4\]\.dly_binary\.bypass
*92 clkgen\.delay_155ns_2\._enable_dlycontrol_
*93 clkgen\.delay_155ns_2\.genblk1\[0\]\.dly_binary\._siga_\[0\]
*94 clkgen\.delay_155ns_2\.genblk1\[0\]\.dly_binary\._siga_\[1\]
*95 clkgen\.delay_155ns_2\.genblk1\[0\]\.dly_binary\.bypass
*96 clkgen\.delay_155ns_2\.genblk1\[0\]\.dly_binary\.out
*97 clkgen\.delay_155ns_2\.genblk1\[1\]\.dly_binary\._siga_\[0\]
*98 clkgen\.delay_155ns_2\.genblk1\[1\]\.dly_binary\._siga_\[1\]
*99 clkgen\.delay_155ns_2\.genblk1\[1\]\.dly_binary\._siga_\[2\]
*100 clkgen\.delay_155ns_2\.genblk1\[1\]\.dly_binary\.bypass
*101 clkgen\.delay_155ns_2\.genblk1\[1\]\.dly_binary\.out
*102 clkgen\.delay_155ns_2\.genblk1\[2\]\.dly_binary\._siga_\[0\]
*103 clkgen\.delay_155ns_2\.genblk1\[2\]\.dly_binary\._siga_\[1\]
*104 clkgen\.delay_155ns_2\.genblk1\[2\]\.dly_binary\._siga_\[2\]
*105 clkgen\.delay_155ns_2\.genblk1\[2\]\.dly_binary\._siga_\[3\]
*106 clkgen\.delay_155ns_2\.genblk1\[2\]\.dly_binary\._siga_\[4\]
*107 clkgen\.delay_155ns_2\.genblk1\[2\]\.dly_binary\.bypass
*108 clkgen\.delay_155ns_2\.genblk1\[2\]\.dly_binary\.out
*109 clkgen\.delay_155ns_2\.genblk1\[3\]\.dly_binary\._siga_\[0\]
*110 clkgen\.delay_155ns_2\.genblk1\[3\]\.dly_binary\._siga_\[1\]
*111 clkgen\.delay_155ns_2\.genblk1\[3\]\.dly_binary\._siga_\[2\]
*112 clkgen\.delay_155ns_2\.genblk1\[3\]\.dly_binary\._siga_\[3\]
*113 clkgen\.delay_155ns_2\.genblk1\[3\]\.dly_binary\._siga_\[4\]
*114 clkgen\.delay_155ns_2\.genblk1\[3\]\.dly_binary\._siga_\[5\]
*115 clkgen\.delay_155ns_2\.genblk1\[3\]\.dly_binary\._siga_\[6\]
*116 clkgen\.delay_155ns_2\.genblk1\[3\]\.dly_binary\._siga_\[7\]
*117 clkgen\.delay_155ns_2\.genblk1\[3\]\.dly_binary\._siga_\[8\]
*118 clkgen\.delay_155ns_2\.genblk1\[3\]\.dly_binary\.bypass
*119 clkgen\.delay_155ns_2\.genblk1\[3\]\.dly_binary\.out
*120 clkgen\.delay_155ns_2\.genblk1\[4\]\.dly_binary\._siga_\[0\]
*121 clkgen\.delay_155ns_2\.genblk1\[4\]\.dly_binary\._siga_\[10\]
*122 clkgen\.delay_155ns_2\.genblk1\[4\]\.dly_binary\._siga_\[11\]
*123 clkgen\.delay_155ns_2\.genblk1\[4\]\.dly_binary\._siga_\[12\]
*124 clkgen\.delay_155ns_2\.genblk1\[4\]\.dly_binary\._siga_\[13\]
*125 clkgen\.delay_155ns_2\.genblk1\[4\]\.dly_binary\._siga_\[14\]
*126 clkgen\.delay_155ns_2\.genblk1\[4\]\.dly_binary\._siga_\[15\]
*127 clkgen\.delay_155ns_2\.genblk1\[4\]\.dly_binary\._siga_\[16\]
*128 clkgen\.delay_155ns_2\.genblk1\[4\]\.dly_binary\._siga_\[1\]
*129 clkgen\.delay_155ns_2\.genblk1\[4\]\.dly_binary\._siga_\[2\]
*130 clkgen\.delay_155ns_2\.genblk1\[4\]\.dly_binary\._siga_\[3\]
*131 clkgen\.delay_155ns_2\.genblk1\[4\]\.dly_binary\._siga_\[4\]
*132 clkgen\.delay_155ns_2\.genblk1\[4\]\.dly_binary\._siga_\[5\]
*133 clkgen\.delay_155ns_2\.genblk1\[4\]\.dly_binary\._siga_\[6\]
*134 clkgen\.delay_155ns_2\.genblk1\[4\]\.dly_binary\._siga_\[7\]
*135 clkgen\.delay_155ns_2\.genblk1\[4\]\.dly_binary\._siga_\[8\]
*136 clkgen\.delay_155ns_2\.genblk1\[4\]\.dly_binary\._siga_\[9\]
*137 clkgen\.delay_155ns_2\.genblk1\[4\]\.dly_binary\.bypass
*138 clkgen\.delay_155ns_3\._enable_dlycontrol_
*139 clkgen\.delay_155ns_3\.genblk1\[0\]\.dly_binary\._siga_\[0\]
*140 clkgen\.delay_155ns_3\.genblk1\[0\]\.dly_binary\._siga_\[1\]
*141 clkgen\.delay_155ns_3\.genblk1\[0\]\.dly_binary\.bypass
*142 clkgen\.delay_155ns_3\.genblk1\[0\]\.dly_binary\.out
*143 clkgen\.delay_155ns_3\.genblk1\[1\]\.dly_binary\._siga_\[0\]
*144 clkgen\.delay_155ns_3\.genblk1\[1\]\.dly_binary\._siga_\[1\]
*145 clkgen\.delay_155ns_3\.genblk1\[1\]\.dly_binary\._siga_\[2\]
*146 clkgen\.delay_155ns_3\.genblk1\[1\]\.dly_binary\.bypass
*147 clkgen\.delay_155ns_3\.genblk1\[1\]\.dly_binary\.out
*148 clkgen\.delay_155ns_3\.genblk1\[2\]\.dly_binary\._siga_\[0\]
*149 clkgen\.delay_155ns_3\.genblk1\[2\]\.dly_binary\._siga_\[1\]
*150 clkgen\.delay_155ns_3\.genblk1\[2\]\.dly_binary\._siga_\[2\]
*151 clkgen\.delay_155ns_3\.genblk1\[2\]\.dly_binary\._siga_\[3\]
*152 clkgen\.delay_155ns_3\.genblk1\[2\]\.dly_binary\._siga_\[4\]
*153 clkgen\.delay_155ns_3\.genblk1\[2\]\.dly_binary\.bypass
*154 clkgen\.delay_155ns_3\.genblk1\[2\]\.dly_binary\.out
*155 clkgen\.delay_155ns_3\.genblk1\[3\]\.dly_binary\._siga_\[0\]
*156 clkgen\.delay_155ns_3\.genblk1\[3\]\.dly_binary\._siga_\[1\]
*157 clkgen\.delay_155ns_3\.genblk1\[3\]\.dly_binary\._siga_\[2\]
*158 clkgen\.delay_155ns_3\.genblk1\[3\]\.dly_binary\._siga_\[3\]
*159 clkgen\.delay_155ns_3\.genblk1\[3\]\.dly_binary\._siga_\[4\]
*160 clkgen\.delay_155ns_3\.genblk1\[3\]\.dly_binary\._siga_\[5\]
*161 clkgen\.delay_155ns_3\.genblk1\[3\]\.dly_binary\._siga_\[6\]
*162 clkgen\.delay_155ns_3\.genblk1\[3\]\.dly_binary\._siga_\[7\]
*163 clkgen\.delay_155ns_3\.genblk1\[3\]\.dly_binary\._siga_\[8\]
*164 clkgen\.delay_155ns_3\.genblk1\[3\]\.dly_binary\.bypass
*165 clkgen\.delay_155ns_3\.genblk1\[3\]\.dly_binary\.out
*166 clkgen\.delay_155ns_3\.genblk1\[4\]\.dly_binary\._siga_\[0\]
*167 clkgen\.delay_155ns_3\.genblk1\[4\]\.dly_binary\._siga_\[10\]
*168 clkgen\.delay_155ns_3\.genblk1\[4\]\.dly_binary\._siga_\[11\]
*169 clkgen\.delay_155ns_3\.genblk1\[4\]\.dly_binary\._siga_\[12\]
*170 clkgen\.delay_155ns_3\.genblk1\[4\]\.dly_binary\._siga_\[13\]
*171 clkgen\.delay_155ns_3\.genblk1\[4\]\.dly_binary\._siga_\[14\]
*172 clkgen\.delay_155ns_3\.genblk1\[4\]\.dly_binary\._siga_\[15\]
*173 clkgen\.delay_155ns_3\.genblk1\[4\]\.dly_binary\._siga_\[16\]
*174 clkgen\.delay_155ns_3\.genblk1\[4\]\.dly_binary\._siga_\[1\]
*175 clkgen\.delay_155ns_3\.genblk1\[4\]\.dly_binary\._siga_\[2\]
*176 clkgen\.delay_155ns_3\.genblk1\[4\]\.dly_binary\._siga_\[3\]
*177 clkgen\.delay_155ns_3\.genblk1\[4\]\.dly_binary\._siga_\[4\]
*178 clkgen\.delay_155ns_3\.genblk1\[4\]\.dly_binary\._siga_\[5\]
*179 clkgen\.delay_155ns_3\.genblk1\[4\]\.dly_binary\._siga_\[6\]
*180 clkgen\.delay_155ns_3\.genblk1\[4\]\.dly_binary\._siga_\[7\]
*181 clkgen\.delay_155ns_3\.genblk1\[4\]\.dly_binary\._siga_\[8\]
*182 clkgen\.delay_155ns_3\.genblk1\[4\]\.dly_binary\._siga_\[9\]
*183 clkgen\.delay_155ns_3\.genblk1\[4\]\.dly_binary\.bypass
*184 clkgen\.enable_loop
*185 edgedetect\._start_conv_delayed_
*186 edgedetect\._start_conv_edge_
*187 edgedetect\.dly_315ns_1\._enable_dlycontrol_
*188 edgedetect\.dly_315ns_1\.genblk1\[0\]\.dly_binary\._siga_\[0\]
*189 edgedetect\.dly_315ns_1\.genblk1\[0\]\.dly_binary\._siga_\[1\]
*190 edgedetect\.dly_315ns_1\.genblk1\[0\]\.dly_binary\.bypass
*191 edgedetect\.dly_315ns_1\.genblk1\[0\]\.dly_binary\.in
*192 edgedetect\.dly_315ns_1\.genblk1\[0\]\.dly_binary\.out
*193 edgedetect\.dly_315ns_1\.genblk1\[1\]\.dly_binary\._siga_\[0\]
*194 edgedetect\.dly_315ns_1\.genblk1\[1\]\.dly_binary\._siga_\[1\]
*195 edgedetect\.dly_315ns_1\.genblk1\[1\]\.dly_binary\._siga_\[2\]
*196 edgedetect\.dly_315ns_1\.genblk1\[1\]\.dly_binary\.bypass
*197 edgedetect\.dly_315ns_1\.genblk1\[1\]\.dly_binary\.out
*198 edgedetect\.dly_315ns_1\.genblk1\[2\]\.dly_binary\._siga_\[0\]
*199 edgedetect\.dly_315ns_1\.genblk1\[2\]\.dly_binary\._siga_\[1\]
*200 edgedetect\.dly_315ns_1\.genblk1\[2\]\.dly_binary\._siga_\[2\]
*201 edgedetect\.dly_315ns_1\.genblk1\[2\]\.dly_binary\._siga_\[3\]
*202 edgedetect\.dly_315ns_1\.genblk1\[2\]\.dly_binary\._siga_\[4\]
*203 edgedetect\.dly_315ns_1\.genblk1\[2\]\.dly_binary\.bypass
*204 edgedetect\.dly_315ns_1\.genblk1\[2\]\.dly_binary\.out
*205 edgedetect\.dly_315ns_1\.genblk1\[3\]\.dly_binary\._siga_\[0\]
*206 edgedetect\.dly_315ns_1\.genblk1\[3\]\.dly_binary\._siga_\[1\]
*207 edgedetect\.dly_315ns_1\.genblk1\[3\]\.dly_binary\._siga_\[2\]
*208 edgedetect\.dly_315ns_1\.genblk1\[3\]\.dly_binary\._siga_\[3\]
*209 edgedetect\.dly_315ns_1\.genblk1\[3\]\.dly_binary\._siga_\[4\]
*210 edgedetect\.dly_315ns_1\.genblk1\[3\]\.dly_binary\._siga_\[5\]
*211 edgedetect\.dly_315ns_1\.genblk1\[3\]\.dly_binary\._siga_\[6\]
*212 edgedetect\.dly_315ns_1\.genblk1\[3\]\.dly_binary\._siga_\[7\]
*213 edgedetect\.dly_315ns_1\.genblk1\[3\]\.dly_binary\._siga_\[8\]
*214 edgedetect\.dly_315ns_1\.genblk1\[3\]\.dly_binary\.bypass
*215 edgedetect\.dly_315ns_1\.genblk1\[3\]\.dly_binary\.out
*216 edgedetect\.dly_315ns_1\.genblk1\[4\]\.dly_binary\._siga_\[0\]
*217 edgedetect\.dly_315ns_1\.genblk1\[4\]\.dly_binary\._siga_\[10\]
*218 edgedetect\.dly_315ns_1\.genblk1\[4\]\.dly_binary\._siga_\[11\]
*219 edgedetect\.dly_315ns_1\.genblk1\[4\]\.dly_binary\._siga_\[12\]
*220 edgedetect\.dly_315ns_1\.genblk1\[4\]\.dly_binary\._siga_\[13\]
*221 edgedetect\.dly_315ns_1\.genblk1\[4\]\.dly_binary\._siga_\[14\]
*222 edgedetect\.dly_315ns_1\.genblk1\[4\]\.dly_binary\._siga_\[15\]
*223 edgedetect\.dly_315ns_1\.genblk1\[4\]\.dly_binary\._siga_\[16\]
*224 edgedetect\.dly_315ns_1\.genblk1\[4\]\.dly_binary\._siga_\[1\]
*225 edgedetect\.dly_315ns_1\.genblk1\[4\]\.dly_binary\._siga_\[2\]
*226 edgedetect\.dly_315ns_1\.genblk1\[4\]\.dly_binary\._siga_\[3\]
*227 edgedetect\.dly_315ns_1\.genblk1\[4\]\.dly_binary\._siga_\[4\]
*228 edgedetect\.dly_315ns_1\.genblk1\[4\]\.dly_binary\._siga_\[5\]
*229 edgedetect\.dly_315ns_1\.genblk1\[4\]\.dly_binary\._siga_\[6\]
*230 edgedetect\.dly_315ns_1\.genblk1\[4\]\.dly_binary\._siga_\[7\]
*231 edgedetect\.dly_315ns_1\.genblk1\[4\]\.dly_binary\._siga_\[8\]
*232 edgedetect\.dly_315ns_1\.genblk1\[4\]\.dly_binary\._siga_\[9\]
*233 edgedetect\.dly_315ns_1\.genblk1\[4\]\.dly_binary\.bypass
*234 edgedetect\.dly_315ns_1\.genblk1\[4\]\.dly_binary\.out
*235 edgedetect\.dly_315ns_1\.genblk1\[5\]\.dly_binary\._siga_\[0\]
*236 edgedetect\.dly_315ns_1\.genblk1\[5\]\.dly_binary\._siga_\[10\]
*237 edgedetect\.dly_315ns_1\.genblk1\[5\]\.dly_binary\._siga_\[11\]
*238 edgedetect\.dly_315ns_1\.genblk1\[5\]\.dly_binary\._siga_\[12\]
*239 edgedetect\.dly_315ns_1\.genblk1\[5\]\.dly_binary\._siga_\[13\]
*240 edgedetect\.dly_315ns_1\.genblk1\[5\]\.dly_binary\._siga_\[14\]
*241 edgedetect\.dly_315ns_1\.genblk1\[5\]\.dly_binary\._siga_\[15\]
*242 edgedetect\.dly_315ns_1\.genblk1\[5\]\.dly_binary\._siga_\[16\]
*243 edgedetect\.dly_315ns_1\.genblk1\[5\]\.dly_binary\._siga_\[17\]
*244 edgedetect\.dly_315ns_1\.genblk1\[5\]\.dly_binary\._siga_\[18\]
*245 edgedetect\.dly_315ns_1\.genblk1\[5\]\.dly_binary\._siga_\[19\]
*246 edgedetect\.dly_315ns_1\.genblk1\[5\]\.dly_binary\._siga_\[1\]
*247 edgedetect\.dly_315ns_1\.genblk1\[5\]\.dly_binary\._siga_\[20\]
*248 edgedetect\.dly_315ns_1\.genblk1\[5\]\.dly_binary\._siga_\[21\]
*249 edgedetect\.dly_315ns_1\.genblk1\[5\]\.dly_binary\._siga_\[22\]
*250 edgedetect\.dly_315ns_1\.genblk1\[5\]\.dly_binary\._siga_\[23\]
*251 edgedetect\.dly_315ns_1\.genblk1\[5\]\.dly_binary\._siga_\[24\]
*252 edgedetect\.dly_315ns_1\.genblk1\[5\]\.dly_binary\._siga_\[25\]
*253 edgedetect\.dly_315ns_1\.genblk1\[5\]\.dly_binary\._siga_\[26\]
*254 edgedetect\.dly_315ns_1\.genblk1\[5\]\.dly_binary\._siga_\[27\]
*255 edgedetect\.dly_315ns_1\.genblk1\[5\]\.dly_binary\._siga_\[28\]
*256 edgedetect\.dly_315ns_1\.genblk1\[5\]\.dly_binary\._siga_\[29\]
*257 edgedetect\.dly_315ns_1\.genblk1\[5\]\.dly_binary\._siga_\[2\]
*258 edgedetect\.dly_315ns_1\.genblk1\[5\]\.dly_binary\._siga_\[30\]
*259 edgedetect\.dly_315ns_1\.genblk1\[5\]\.dly_binary\._siga_\[31\]
*260 edgedetect\.dly_315ns_1\.genblk1\[5\]\.dly_binary\._siga_\[32\]
*261 edgedetect\.dly_315ns_1\.genblk1\[5\]\.dly_binary\._siga_\[3\]
*262 edgedetect\.dly_315ns_1\.genblk1\[5\]\.dly_binary\._siga_\[4\]
*263 edgedetect\.dly_315ns_1\.genblk1\[5\]\.dly_binary\._siga_\[5\]
*264 edgedetect\.dly_315ns_1\.genblk1\[5\]\.dly_binary\._siga_\[6\]
*265 edgedetect\.dly_315ns_1\.genblk1\[5\]\.dly_binary\._siga_\[7\]
*266 edgedetect\.dly_315ns_1\.genblk1\[5\]\.dly_binary\._siga_\[8\]
*267 edgedetect\.dly_315ns_1\.genblk1\[5\]\.dly_binary\._siga_\[9\]
*268 edgedetect\.dly_315ns_1\.genblk1\[5\]\.dly_binary\.bypass
*269 edgedetect\.ena_in
*270 ANTENNA_clkgen\.delay_155ns_1\.enablebuffer_A
*271 ANTENNA_clkgen\.delay_155ns_1\.genblk1\[0\]\.bypass_enable_B
*272 ANTENNA_clkgen\.delay_155ns_1\.genblk1\[0\]\.dly_binary\.and_bypass_switch_A_N
*273 ANTENNA_clkgen\.delay_155ns_1\.genblk1\[0\]\.dly_binary\.out_mux_S
*274 ANTENNA_clkgen\.delay_155ns_1\.genblk1\[1\]\.bypass_enable_B
*275 ANTENNA_clkgen\.delay_155ns_1\.genblk1\[1\]\.dly_binary\.and_bypass_switch_A_N
*276 ANTENNA_clkgen\.delay_155ns_1\.genblk1\[1\]\.dly_binary\.out_mux_S
*277 ANTENNA_clkgen\.delay_155ns_1\.genblk1\[2\]\.bypass_enable_B
*278 ANTENNA_clkgen\.delay_155ns_1\.genblk1\[2\]\.dly_binary\.and_bypass_switch_A_N
*279 ANTENNA_clkgen\.delay_155ns_1\.genblk1\[2\]\.dly_binary\.out_mux_S
*280 ANTENNA_clkgen\.delay_155ns_1\.genblk1\[3\]\.bypass_enable_B
*281 ANTENNA_clkgen\.delay_155ns_1\.genblk1\[4\]\.bypass_enable_B
*282 ANTENNA_clkgen\.delay_155ns_1\.genblk1\[4\]\.dly_binary\.and_bypass_switch_A_N
*283 ANTENNA_clkgen\.delay_155ns_1\.genblk1\[4\]\.dly_binary\.out_mux_A0
*284 ANTENNA_clkgen\.delay_155ns_1\.genblk1\[4\]\.dly_binary\.out_mux_S
*285 ANTENNA_clkgen\.delay_155ns_2\.enablebuffer_A
*286 ANTENNA_clkgen\.delay_155ns_2\.genblk1\[0\]\.bypass_enable_A
*287 ANTENNA_clkgen\.delay_155ns_2\.genblk1\[0\]\.bypass_enable_B
*288 ANTENNA_clkgen\.delay_155ns_2\.genblk1\[0\]\.dly_binary\.and_bypass_switch_A_N
*289 ANTENNA_clkgen\.delay_155ns_2\.genblk1\[0\]\.dly_binary\.out_mux_S
*290 ANTENNA_clkgen\.delay_155ns_2\.genblk1\[1\]\.bypass_enable_A
*291 ANTENNA_clkgen\.delay_155ns_2\.genblk1\[1\]\.bypass_enable_B
*292 ANTENNA_clkgen\.delay_155ns_2\.genblk1\[1\]\.dly_binary\.and_bypass_switch_A_N
*293 ANTENNA_clkgen\.delay_155ns_2\.genblk1\[1\]\.dly_binary\.out_mux_S
*294 ANTENNA_clkgen\.delay_155ns_2\.genblk1\[2\]\.bypass_enable_A
*295 ANTENNA_clkgen\.delay_155ns_2\.genblk1\[2\]\.bypass_enable_B
*296 ANTENNA_clkgen\.delay_155ns_2\.genblk1\[3\]\.bypass_enable_A
*297 ANTENNA_clkgen\.delay_155ns_2\.genblk1\[3\]\.bypass_enable_B
*298 ANTENNA_clkgen\.delay_155ns_2\.genblk1\[4\]\.bypass_enable_A
*299 ANTENNA_clkgen\.delay_155ns_2\.genblk1\[4\]\.bypass_enable_B
*300 ANTENNA_clkgen\.delay_155ns_2\.genblk1\[4\]\.dly_binary\.out_mux_A0
*301 ANTENNA_clkgen\.delay_155ns_3\.enablebuffer_A
*302 ANTENNA_clkgen\.delay_155ns_3\.genblk1\[0\]\.bypass_enable_A
*303 ANTENNA_clkgen\.delay_155ns_3\.genblk1\[0\]\.bypass_enable_B
*304 ANTENNA_clkgen\.delay_155ns_3\.genblk1\[1\]\.bypass_enable_A
*305 ANTENNA_clkgen\.delay_155ns_3\.genblk1\[1\]\.bypass_enable_B
*306 ANTENNA_clkgen\.delay_155ns_3\.genblk1\[2\]\.bypass_enable_A
*307 ANTENNA_clkgen\.delay_155ns_3\.genblk1\[2\]\.bypass_enable_B
*308 ANTENNA_clkgen\.delay_155ns_3\.genblk1\[3\]\.bypass_enable_A
*309 ANTENNA_clkgen\.delay_155ns_3\.genblk1\[3\]\.bypass_enable_B
*310 ANTENNA_clkgen\.delay_155ns_3\.genblk1\[4\]\.bypass_enable_A
*311 ANTENNA_clkgen\.delay_155ns_3\.genblk1\[4\]\.bypass_enable_B
*312 ANTENNA_clkgen\.nor1_B_N
*313 ANTENNA_edgedetect\.dly_315ns_1\.enablebuffer_A
*314 ANTENNA_edgedetect\.dly_315ns_1\.genblk1\[0\]\.bypass_enable_A
*315 ANTENNA_edgedetect\.dly_315ns_1\.genblk1\[0\]\.bypass_enable_B
*316 ANTENNA_edgedetect\.dly_315ns_1\.genblk1\[0\]\.dly_binary\.and_bypass_switch_B
*317 ANTENNA_edgedetect\.dly_315ns_1\.genblk1\[0\]\.dly_binary\.out_mux_A1
*318 ANTENNA_edgedetect\.dly_315ns_1\.genblk1\[1\]\.bypass_enable_A
*319 ANTENNA_edgedetect\.dly_315ns_1\.genblk1\[1\]\.bypass_enable_B
*320 ANTENNA_edgedetect\.dly_315ns_1\.genblk1\[2\]\.bypass_enable_A
*321 ANTENNA_edgedetect\.dly_315ns_1\.genblk1\[2\]\.bypass_enable_B
*322 ANTENNA_edgedetect\.dly_315ns_1\.genblk1\[3\]\.bypass_enable_A
*323 ANTENNA_edgedetect\.dly_315ns_1\.genblk1\[3\]\.bypass_enable_B
*324 ANTENNA_edgedetect\.dly_315ns_1\.genblk1\[3\]\.dly_binary\.and_bypass_switch_A_N
*325 ANTENNA_edgedetect\.dly_315ns_1\.genblk1\[3\]\.dly_binary\.out_mux_S
*326 ANTENNA_edgedetect\.dly_315ns_1\.genblk1\[4\]\.bypass_enable_A
*327 ANTENNA_edgedetect\.dly_315ns_1\.genblk1\[4\]\.bypass_enable_B
*328 ANTENNA_edgedetect\.dly_315ns_1\.genblk1\[4\]\.dly_binary\.and_bypass_switch_A_N
*329 ANTENNA_edgedetect\.dly_315ns_1\.genblk1\[4\]\.dly_binary\.out_mux_A0
*330 ANTENNA_edgedetect\.dly_315ns_1\.genblk1\[4\]\.dly_binary\.out_mux_S
*331 ANTENNA_edgedetect\.dly_315ns_1\.genblk1\[5\]\.bypass_enable_A
*332 ANTENNA_edgedetect\.dly_315ns_1\.genblk1\[5\]\.bypass_enable_B
*333 ANTENNA_edgedetect\.dly_315ns_1\.genblk1\[5\]\.dly_binary\.and_bypass_switch_A_N
*334 ANTENNA_edgedetect\.dly_315ns_1\.genblk1\[5\]\.dly_binary\.out_mux_A0
*335 ANTENNA_edgedetect\.dly_315ns_1\.genblk1\[5\]\.dly_binary\.out_mux_S
*336 ANTENNA_edgedetect\.nor1_B_N
*337 ANTENNA_inbuf_1_A
*338 ANTENNA_inbuf_2_A
*339 ANTENNA_inbuf_3_A
*340 ANTENNA_outbuf_2_A
*341 ANTENNA_outbuf_3_A
*342 ANTENNA_outbuf_4_A
*343 ANTENNA_outbuf_5_A
*344 ANTENNA_outbuf_6_A
*345 FILLER_0_121
*346 FILLER_0_125
*347 FILLER_0_152
*348 FILLER_0_156
*349 FILLER_0_17
*350 FILLER_0_183
*351 FILLER_0_187
*352 FILLER_0_214
*353 FILLER_0_218
*354 FILLER_0_226
*355 FILLER_0_232
*356 FILLER_0_238
*357 FILLER_0_244
*358 FILLER_0_249
*359 FILLER_0_253
*360 FILLER_0_259
*361 FILLER_0_271
*362 FILLER_0_280
*363 FILLER_0_29
*364 FILLER_0_292
*365 FILLER_0_3
*366 FILLER_0_304
*367 FILLER_0_311
*368 FILLER_0_319
*369 FILLER_0_32
*370 FILLER_0_60
*371 FILLER_0_63
*372 FILLER_0_7
*373 FILLER_0_91
*374 FILLER_0_94
*375 FILLER_10_121
*376 FILLER_10_150
*377 FILLER_10_154
*378 FILLER_10_156
*379 FILLER_10_16
*380 FILLER_10_163
*381 FILLER_10_172
*382 FILLER_10_201
*383 FILLER_10_210
*384 FILLER_10_216
*385 FILLER_10_218
*386 FILLER_10_245
*387 FILLER_10_274
*388 FILLER_10_278
*389 FILLER_10_280
*390 FILLER_10_29
*391 FILLER_10_3
*392 FILLER_10_307
*393 FILLER_10_313
*394 FILLER_10_319
*395 FILLER_10_32
*396 FILLER_10_36
*397 FILLER_10_62
*398 FILLER_10_9
*399 FILLER_10_91
*400 FILLER_10_94
*401 FILLER_11_122
*402 FILLER_11_125
*403 FILLER_11_13
*404 FILLER_11_140
*405 FILLER_11_169
*406 FILLER_11_178
*407 FILLER_11_184
*408 FILLER_11_187
*409 FILLER_11_218
*410 FILLER_11_224
*411 FILLER_11_230
*412 FILLER_11_236
*413 FILLER_11_242
*414 FILLER_11_249
*415 FILLER_11_253
*416 FILLER_11_26
*417 FILLER_11_286
*418 FILLER_11_292
*419 FILLER_11_298
*420 FILLER_11_3
*421 FILLER_11_304
*422 FILLER_11_311
*423 FILLER_11_315
*424 FILLER_11_319
*425 FILLER_11_55
*426 FILLER_11_61
*427 FILLER_11_63
*428 FILLER_11_90
*429 FILLER_11_96
*430 FILLER_12_121
*431 FILLER_12_127
*432 FILLER_12_153
*433 FILLER_12_156
*434 FILLER_12_16
*435 FILLER_12_163
*436 FILLER_12_172
*437 FILLER_12_205
*438 FILLER_12_211
*439 FILLER_12_218
*440 FILLER_12_245
*441 FILLER_12_251
*442 FILLER_12_277
*443 FILLER_12_280
*444 FILLER_12_284
*445 FILLER_12_29
*446 FILLER_12_292
*447 FILLER_12_3
*448 FILLER_12_318
*449 FILLER_12_32
*450 FILLER_12_59
*451 FILLER_12_88
*452 FILLER_12_9
*453 FILLER_12_92
*454 FILLER_12_94
*455 FILLER_13_122
*456 FILLER_13_125
*457 FILLER_13_136
*458 FILLER_13_146
*459 FILLER_13_17
*460 FILLER_13_177
*461 FILLER_13_183
*462 FILLER_13_187
*463 FILLER_13_214
*464 FILLER_13_243
*465 FILLER_13_247
*466 FILLER_13_249
*467 FILLER_13_276
*468 FILLER_13_282
*469 FILLER_13_3
*470 FILLER_13_308
*471 FILLER_13_311
*472 FILLER_13_315
*473 FILLER_13_319
*474 FILLER_13_46
*475 FILLER_13_59
*476 FILLER_13_63
*477 FILLER_13_67
*478 FILLER_13_7
*479 FILLER_13_93
*480 FILLER_14_102
*481 FILLER_14_108
*482 FILLER_14_118
*483 FILLER_14_147
*484 FILLER_14_153
*485 FILLER_14_156
*486 FILLER_14_16
*487 FILLER_14_162
*488 FILLER_14_191
*489 FILLER_14_197
*490 FILLER_14_203
*491 FILLER_14_209
*492 FILLER_14_215
*493 FILLER_14_218
*494 FILLER_14_245
*495 FILLER_14_274
*496 FILLER_14_278
*497 FILLER_14_280
*498 FILLER_14_29
*499 FILLER_14_3
*500 FILLER_14_307
*501 FILLER_14_313
*502 FILLER_14_319
*503 FILLER_14_32
*504 FILLER_14_59
*505 FILLER_14_65
*506 FILLER_14_91
*507 FILLER_14_94
*508 FILLER_15_122
*509 FILLER_15_125
*510 FILLER_15_152
*511 FILLER_15_158
*512 FILLER_15_184
*513 FILLER_15_187
*514 FILLER_15_191
*515 FILLER_15_195
*516 FILLER_15_221
*517 FILLER_15_227
*518 FILLER_15_233
*519 FILLER_15_239
*520 FILLER_15_245
*521 FILLER_15_249
*522 FILLER_15_253
*523 FILLER_15_279
*524 FILLER_15_3
*525 FILLER_15_30
*526 FILLER_15_308
*527 FILLER_15_311
*528 FILLER_15_315
*529 FILLER_15_319
*530 FILLER_15_59
*531 FILLER_15_63
*532 FILLER_15_67
*533 FILLER_15_93
*534 FILLER_16_124
*535 FILLER_16_153
*536 FILLER_16_156
*537 FILLER_16_16
*538 FILLER_16_163
*539 FILLER_16_196
*540 FILLER_16_205
*541 FILLER_16_214
*542 FILLER_16_218
*543 FILLER_16_245
*544 FILLER_16_274
*545 FILLER_16_278
*546 FILLER_16_280
*547 FILLER_16_29
*548 FILLER_16_3
*549 FILLER_16_307
*550 FILLER_16_313
*551 FILLER_16_319
*552 FILLER_16_32
*553 FILLER_16_40
*554 FILLER_16_47
*555 FILLER_16_51
*556 FILLER_16_77
*557 FILLER_16_87
*558 FILLER_16_9
*559 FILLER_16_94
*560 FILLER_16_98
*561 FILLER_17_120
*562 FILLER_17_125
*563 FILLER_17_133
*564 FILLER_17_143
*565 FILLER_17_174
*566 FILLER_17_183
*567 FILLER_17_187
*568 FILLER_17_214
*569 FILLER_17_243
*570 FILLER_17_247
*571 FILLER_17_249
*572 FILLER_17_276
*573 FILLER_17_3
*574 FILLER_17_305
*575 FILLER_17_309
*576 FILLER_17_31
*577 FILLER_17_311
*578 FILLER_17_315
*579 FILLER_17_319
*580 FILLER_17_60
*581 FILLER_17_63
*582 FILLER_17_91
*583 FILLER_18_124
*584 FILLER_18_153
*585 FILLER_18_156
*586 FILLER_18_16
*587 FILLER_18_163
*588 FILLER_18_194
*589 FILLER_18_203
*590 FILLER_18_212
*591 FILLER_18_216
*592 FILLER_18_218
*593 FILLER_18_245
*594 FILLER_18_274
*595 FILLER_18_278
*596 FILLER_18_280
*597 FILLER_18_29
*598 FILLER_18_3
*599 FILLER_18_307
*600 FILLER_18_317
*601 FILLER_18_32
*602 FILLER_18_36
*603 FILLER_18_62
*604 FILLER_18_91
*605 FILLER_18_94
*606 FILLER_18_98
*607 FILLER_19_122
*608 FILLER_19_125
*609 FILLER_19_133
*610 FILLER_19_143
*611 FILLER_19_151
*612 FILLER_19_180
*613 FILLER_19_187
*614 FILLER_19_218
*615 FILLER_19_224
*616 FILLER_19_230
*617 FILLER_19_236
*618 FILLER_19_242
*619 FILLER_19_249
*620 FILLER_19_276
*621 FILLER_19_3
*622 FILLER_19_305
*623 FILLER_19_309
*624 FILLER_19_31
*625 FILLER_19_311
*626 FILLER_19_315
*627 FILLER_19_319
*628 FILLER_19_60
*629 FILLER_19_63
*630 FILLER_19_90
*631 FILLER_19_96
*632 FILLER_1_10
*633 FILLER_1_122
*634 FILLER_1_125
*635 FILLER_1_133
*636 FILLER_1_143
*637 FILLER_1_150
*638 FILLER_1_179
*639 FILLER_1_185
*640 FILLER_1_187
*641 FILLER_1_214
*642 FILLER_1_220
*643 FILLER_1_226
*644 FILLER_1_23
*645 FILLER_1_232
*646 FILLER_1_238
*647 FILLER_1_244
*648 FILLER_1_249
*649 FILLER_1_253
*650 FILLER_1_259
*651 FILLER_1_271
*652 FILLER_1_283
*653 FILLER_1_295
*654 FILLER_1_3
*655 FILLER_1_307
*656 FILLER_1_311
*657 FILLER_1_319
*658 FILLER_1_52
*659 FILLER_1_59
*660 FILLER_1_63
*661 FILLER_1_90
*662 FILLER_1_96
*663 FILLER_20_122
*664 FILLER_20_125
*665 FILLER_20_152
*666 FILLER_20_156
*667 FILLER_20_16
*668 FILLER_20_183
*669 FILLER_20_187
*670 FILLER_20_214
*671 FILLER_20_218
*672 FILLER_20_245
*673 FILLER_20_249
*674 FILLER_20_276
*675 FILLER_20_280
*676 FILLER_20_29
*677 FILLER_20_3
*678 FILLER_20_308
*679 FILLER_20_311
*680 FILLER_20_315
*681 FILLER_20_319
*682 FILLER_20_32
*683 FILLER_20_60
*684 FILLER_20_63
*685 FILLER_20_9
*686 FILLER_20_91
*687 FILLER_20_94
*688 FILLER_2_102
*689 FILLER_2_111
*690 FILLER_2_140
*691 FILLER_2_150
*692 FILLER_2_154
*693 FILLER_2_156
*694 FILLER_2_16
*695 FILLER_2_164
*696 FILLER_2_193
*697 FILLER_2_202
*698 FILLER_2_211
*699 FILLER_2_218
*700 FILLER_2_222
*701 FILLER_2_228
*702 FILLER_2_234
*703 FILLER_2_240
*704 FILLER_2_246
*705 FILLER_2_252
*706 FILLER_2_264
*707 FILLER_2_276
*708 FILLER_2_280
*709 FILLER_2_29
*710 FILLER_2_292
*711 FILLER_2_3
*712 FILLER_2_304
*713 FILLER_2_316
*714 FILLER_2_32
*715 FILLER_2_36
*716 FILLER_2_62
*717 FILLER_2_9
*718 FILLER_2_91
*719 FILLER_2_94
*720 FILLER_3_122
*721 FILLER_3_125
*722 FILLER_3_133
*723 FILLER_3_137
*724 FILLER_3_163
*725 FILLER_3_173
*726 FILLER_3_182
*727 FILLER_3_187
*728 FILLER_3_214
*729 FILLER_3_220
*730 FILLER_3_226
*731 FILLER_3_232
*732 FILLER_3_238
*733 FILLER_3_244
*734 FILLER_3_249
*735 FILLER_3_253
*736 FILLER_3_265
*737 FILLER_3_277
*738 FILLER_3_289
*739 FILLER_3_3
*740 FILLER_3_301
*741 FILLER_3_309
*742 FILLER_3_31
*743 FILLER_3_311
*744 FILLER_3_319
*745 FILLER_3_60
*746 FILLER_3_63
*747 FILLER_3_92
*748 FILLER_3_96
*749 FILLER_4_121
*750 FILLER_4_125
*751 FILLER_4_151
*752 FILLER_4_156
*753 FILLER_4_16
*754 FILLER_4_183
*755 FILLER_4_189
*756 FILLER_4_215
*757 FILLER_4_218
*758 FILLER_4_225
*759 FILLER_4_231
*760 FILLER_4_237
*761 FILLER_4_243
*762 FILLER_4_249
*763 FILLER_4_255
*764 FILLER_4_267
*765 FILLER_4_280
*766 FILLER_4_29
*767 FILLER_4_292
*768 FILLER_4_3
*769 FILLER_4_304
*770 FILLER_4_316
*771 FILLER_4_32
*772 FILLER_4_36
*773 FILLER_4_62
*774 FILLER_4_91
*775 FILLER_4_94
*776 FILLER_5_122
*777 FILLER_5_125
*778 FILLER_5_152
*779 FILLER_5_181
*780 FILLER_5_185
*781 FILLER_5_187
*782 FILLER_5_194
*783 FILLER_5_227
*784 FILLER_5_236
*785 FILLER_5_242
*786 FILLER_5_249
*787 FILLER_5_276
*788 FILLER_5_288
*789 FILLER_5_298
*790 FILLER_5_3
*791 FILLER_5_308
*792 FILLER_5_31
*793 FILLER_5_311
*794 FILLER_5_319
*795 FILLER_5_60
*796 FILLER_5_63
*797 FILLER_5_91
*798 FILLER_6_122
*799 FILLER_6_151
*800 FILLER_6_156
*801 FILLER_6_16
*802 FILLER_6_183
*803 FILLER_6_189
*804 FILLER_6_215
*805 FILLER_6_218
*806 FILLER_6_245
*807 FILLER_6_274
*808 FILLER_6_278
*809 FILLER_6_280
*810 FILLER_6_29
*811 FILLER_6_3
*812 FILLER_6_313
*813 FILLER_6_319
*814 FILLER_6_32
*815 FILLER_6_36
*816 FILLER_6_62
*817 FILLER_6_9
*818 FILLER_6_91
*819 FILLER_6_94
*820 FILLER_7_122
*821 FILLER_7_125
*822 FILLER_7_154
*823 FILLER_7_183
*824 FILLER_7_187
*825 FILLER_7_20
*826 FILLER_7_214
*827 FILLER_7_243
*828 FILLER_7_247
*829 FILLER_7_249
*830 FILLER_7_276
*831 FILLER_7_3
*832 FILLER_7_305
*833 FILLER_7_309
*834 FILLER_7_311
*835 FILLER_7_319
*836 FILLER_7_49
*837 FILLER_7_59
*838 FILLER_7_63
*839 FILLER_7_67
*840 FILLER_7_7
*841 FILLER_7_93
*842 FILLER_8_121
*843 FILLER_8_152
*844 FILLER_8_156
*845 FILLER_8_16
*846 FILLER_8_163
*847 FILLER_8_169
*848 FILLER_8_195
*849 FILLER_8_204
*850 FILLER_8_213
*851 FILLER_8_218
*852 FILLER_8_224
*853 FILLER_8_250
*854 FILLER_8_256
*855 FILLER_8_262
*856 FILLER_8_268
*857 FILLER_8_274
*858 FILLER_8_278
*859 FILLER_8_280
*860 FILLER_8_29
*861 FILLER_8_3
*862 FILLER_8_307
*863 FILLER_8_319
*864 FILLER_8_32
*865 FILLER_8_60
*866 FILLER_8_89
*867 FILLER_8_9
*868 FILLER_8_94
*869 FILLER_9_111
*870 FILLER_9_115
*871 FILLER_9_122
*872 FILLER_9_125