*SPEF "ieee 1481-1999"
*DESIGN "adc_clkgen_with_edgedetect"
*DATE "11:11:11 Fri 11 11, 1111"
*VENDOR "OpenRCX"
*PROGRAM "Parallel Extraction"
*VERSION "1.0"
*DESIGN_FLOW "NAME_SCOPE LOCAL" "PIN_CAP NONE"
*DIVIDER /
*DELIMITER :
*BUS_DELIMITER []
*T_UNIT 1 NS
*C_UNIT 1 PF
*R_UNIT 1 OHM
*L_UNIT 1 HENRY

*NAME_MAP
*3 clk_comp_out
*4 clk_dig_out
*5 dlycontrol1_in[0]
*6 dlycontrol1_in[1]
*7 dlycontrol1_in[2]
*8 dlycontrol1_in[3]
*9 dlycontrol1_in[4]
*10 dlycontrol2_in[0]
*11 dlycontrol2_in[1]
*12 dlycontrol2_in[2]
*13 dlycontrol2_in[3]
*14 dlycontrol2_in[4]
*15 dlycontrol3_in[0]
*16 dlycontrol3_in[1]
*17 dlycontrol3_in[2]
*18 dlycontrol3_in[3]
*19 dlycontrol3_in[4]
*20 dlycontrol4_in[0]
*21 dlycontrol4_in[1]
*22 dlycontrol4_in[2]
*23 dlycontrol4_in[3]
*24 dlycontrol4_in[4]
*25 dlycontrol4_in[5]
*26 ena_in
*27 enable_dlycontrol_in
*28 ndecision_finish_in
*29 nsample_n_in
*30 nsample_n_out
*31 nsample_p_in
*32 nsample_p_out
*33 sample_n_in
*34 sample_n_out
*35 sample_p_in
*36 sample_p_out
*37 start_conv_in
*40 clkgen\.clk_comp_out
*41 clkgen\.clk_dig_delayed_w
*42 clkgen\.clk_dig_out
*43 clkgen\.delay_155ns_1\.enable_dlycontrol_w
*44 clkgen\.delay_155ns_1\.genblk1\[0\]\.dly_binary\.bypass_in
*45 clkgen\.delay_155ns_1\.genblk1\[0\]\.dly_binary\.in
*46 clkgen\.delay_155ns_1\.genblk1\[0\]\.dly_binary\.out
*47 clkgen\.delay_155ns_1\.genblk1\[0\]\.dly_binary\.signal_w\[0\]
*48 clkgen\.delay_155ns_1\.genblk1\[0\]\.dly_binary\.signal_w\[1\]
*49 clkgen\.delay_155ns_1\.genblk1\[1\]\.dly_binary\.bypass_in
*50 clkgen\.delay_155ns_1\.genblk1\[1\]\.dly_binary\.out
*51 clkgen\.delay_155ns_1\.genblk1\[1\]\.dly_binary\.signal_w\[0\]
*52 clkgen\.delay_155ns_1\.genblk1\[1\]\.dly_binary\.signal_w\[1\]
*53 clkgen\.delay_155ns_1\.genblk1\[1\]\.dly_binary\.signal_w\[2\]
*54 clkgen\.delay_155ns_1\.genblk1\[2\]\.dly_binary\.bypass_in
*55 clkgen\.delay_155ns_1\.genblk1\[2\]\.dly_binary\.out
*56 clkgen\.delay_155ns_1\.genblk1\[2\]\.dly_binary\.signal_w\[0\]
*57 clkgen\.delay_155ns_1\.genblk1\[2\]\.dly_binary\.signal_w\[1\]
*58 clkgen\.delay_155ns_1\.genblk1\[2\]\.dly_binary\.signal_w\[2\]
*59 clkgen\.delay_155ns_1\.genblk1\[2\]\.dly_binary\.signal_w\[3\]
*60 clkgen\.delay_155ns_1\.genblk1\[2\]\.dly_binary\.signal_w\[4\]
*61 clkgen\.delay_155ns_1\.genblk1\[3\]\.dly_binary\.bypass_in
*62 clkgen\.delay_155ns_1\.genblk1\[3\]\.dly_binary\.out
*63 clkgen\.delay_155ns_1\.genblk1\[3\]\.dly_binary\.signal_w\[0\]
*64 clkgen\.delay_155ns_1\.genblk1\[3\]\.dly_binary\.signal_w\[1\]
*65 clkgen\.delay_155ns_1\.genblk1\[3\]\.dly_binary\.signal_w\[2\]
*66 clkgen\.delay_155ns_1\.genblk1\[3\]\.dly_binary\.signal_w\[3\]
*67 clkgen\.delay_155ns_1\.genblk1\[3\]\.dly_binary\.signal_w\[4\]
*68 clkgen\.delay_155ns_1\.genblk1\[3\]\.dly_binary\.signal_w\[5\]
*69 clkgen\.delay_155ns_1\.genblk1\[3\]\.dly_binary\.signal_w\[6\]
*70 clkgen\.delay_155ns_1\.genblk1\[3\]\.dly_binary\.signal_w\[7\]
*71 clkgen\.delay_155ns_1\.genblk1\[3\]\.dly_binary\.signal_w\[8\]
*72 clkgen\.delay_155ns_1\.genblk1\[4\]\.dly_binary\.bypass_in
*73 clkgen\.delay_155ns_1\.genblk1\[4\]\.dly_binary\.out
*74 clkgen\.delay_155ns_1\.genblk1\[4\]\.dly_binary\.signal_w\[0\]
*75 clkgen\.delay_155ns_1\.genblk1\[4\]\.dly_binary\.signal_w\[10\]
*76 clkgen\.delay_155ns_1\.genblk1\[4\]\.dly_binary\.signal_w\[11\]
*77 clkgen\.delay_155ns_1\.genblk1\[4\]\.dly_binary\.signal_w\[12\]
*78 clkgen\.delay_155ns_1\.genblk1\[4\]\.dly_binary\.signal_w\[13\]
*79 clkgen\.delay_155ns_1\.genblk1\[4\]\.dly_binary\.signal_w\[14\]
*80 clkgen\.delay_155ns_1\.genblk1\[4\]\.dly_binary\.signal_w\[15\]
*81 clkgen\.delay_155ns_1\.genblk1\[4\]\.dly_binary\.signal_w\[16\]
*82 clkgen\.delay_155ns_1\.genblk1\[4\]\.dly_binary\.signal_w\[1\]
*83 clkgen\.delay_155ns_1\.genblk1\[4\]\.dly_binary\.signal_w\[2\]
*84 clkgen\.delay_155ns_1\.genblk1\[4\]\.dly_binary\.signal_w\[3\]
*85 clkgen\.delay_155ns_1\.genblk1\[4\]\.dly_binary\.signal_w\[4\]
*86 clkgen\.delay_155ns_1\.genblk1\[4\]\.dly_binary\.signal_w\[5\]
*87 clkgen\.delay_155ns_1\.genblk1\[4\]\.dly_binary\.signal_w\[6\]
*88 clkgen\.delay_155ns_1\.genblk1\[4\]\.dly_binary\.signal_w\[7\]
*89 clkgen\.delay_155ns_1\.genblk1\[4\]\.dly_binary\.signal_w\[8\]
*90 clkgen\.delay_155ns_1\.genblk1\[4\]\.dly_binary\.signal_w\[9\]
*91 clkgen\.delay_155ns_2\.enable_dlycontrol_w
*92 clkgen\.delay_155ns_2\.genblk1\[0\]\.dly_binary\.bypass_in
*93 clkgen\.delay_155ns_2\.genblk1\[0\]\.dly_binary\.out
*94 clkgen\.delay_155ns_2\.genblk1\[0\]\.dly_binary\.signal_w\[0\]
*95 clkgen\.delay_155ns_2\.genblk1\[0\]\.dly_binary\.signal_w\[1\]
*96 clkgen\.delay_155ns_2\.genblk1\[1\]\.dly_binary\.bypass_in
*97 clkgen\.delay_155ns_2\.genblk1\[1\]\.dly_binary\.out
*98 clkgen\.delay_155ns_2\.genblk1\[1\]\.dly_binary\.signal_w\[0\]
*99 clkgen\.delay_155ns_2\.genblk1\[1\]\.dly_binary\.signal_w\[1\]
*100 clkgen\.delay_155ns_2\.genblk1\[1\]\.dly_binary\.signal_w\[2\]
*101 clkgen\.delay_155ns_2\.genblk1\[2\]\.dly_binary\.bypass_in
*102 clkgen\.delay_155ns_2\.genblk1\[2\]\.dly_binary\.out
*103 clkgen\.delay_155ns_2\.genblk1\[2\]\.dly_binary\.signal_w\[0\]
*104 clkgen\.delay_155ns_2\.genblk1\[2\]\.dly_binary\.signal_w\[1\]
*105 clkgen\.delay_155ns_2\.genblk1\[2\]\.dly_binary\.signal_w\[2\]
*106 clkgen\.delay_155ns_2\.genblk1\[2\]\.dly_binary\.signal_w\[3\]
*107 clkgen\.delay_155ns_2\.genblk1\[2\]\.dly_binary\.signal_w\[4\]
*108 clkgen\.delay_155ns_2\.genblk1\[3\]\.dly_binary\.bypass_in
*109 clkgen\.delay_155ns_2\.genblk1\[3\]\.dly_binary\.out
*110 clkgen\.delay_155ns_2\.genblk1\[3\]\.dly_binary\.signal_w\[0\]
*111 clkgen\.delay_155ns_2\.genblk1\[3\]\.dly_binary\.signal_w\[1\]
*112 clkgen\.delay_155ns_2\.genblk1\[3\]\.dly_binary\.signal_w\[2\]
*113 clkgen\.delay_155ns_2\.genblk1\[3\]\.dly_binary\.signal_w\[3\]
*114 clkgen\.delay_155ns_2\.genblk1\[3\]\.dly_binary\.signal_w\[4\]
*115 clkgen\.delay_155ns_2\.genblk1\[3\]\.dly_binary\.signal_w\[5\]
*116 clkgen\.delay_155ns_2\.genblk1\[3\]\.dly_binary\.signal_w\[6\]
*117 clkgen\.delay_155ns_2\.genblk1\[3\]\.dly_binary\.signal_w\[7\]
*118 clkgen\.delay_155ns_2\.genblk1\[3\]\.dly_binary\.signal_w\[8\]
*119 clkgen\.delay_155ns_2\.genblk1\[4\]\.dly_binary\.bypass_in
*120 clkgen\.delay_155ns_2\.genblk1\[4\]\.dly_binary\.signal_w\[0\]
*121 clkgen\.delay_155ns_2\.genblk1\[4\]\.dly_binary\.signal_w\[10\]
*122 clkgen\.delay_155ns_2\.genblk1\[4\]\.dly_binary\.signal_w\[11\]
*123 clkgen\.delay_155ns_2\.genblk1\[4\]\.dly_binary\.signal_w\[12\]
*124 clkgen\.delay_155ns_2\.genblk1\[4\]\.dly_binary\.signal_w\[13\]
*125 clkgen\.delay_155ns_2\.genblk1\[4\]\.dly_binary\.signal_w\[14\]
*126 clkgen\.delay_155ns_2\.genblk1\[4\]\.dly_binary\.signal_w\[15\]
*127 clkgen\.delay_155ns_2\.genblk1\[4\]\.dly_binary\.signal_w\[16\]
*128 clkgen\.delay_155ns_2\.genblk1\[4\]\.dly_binary\.signal_w\[1\]
*129 clkgen\.delay_155ns_2\.genblk1\[4\]\.dly_binary\.signal_w\[2\]
*130 clkgen\.delay_155ns_2\.genblk1\[4\]\.dly_binary\.signal_w\[3\]
*131 clkgen\.delay_155ns_2\.genblk1\[4\]\.dly_binary\.signal_w\[4\]
*132 clkgen\.delay_155ns_2\.genblk1\[4\]\.dly_binary\.signal_w\[5\]
*133 clkgen\.delay_155ns_2\.genblk1\[4\]\.dly_binary\.signal_w\[6\]
*134 clkgen\.delay_155ns_2\.genblk1\[4\]\.dly_binary\.signal_w\[7\]
*135 clkgen\.delay_155ns_2\.genblk1\[4\]\.dly_binary\.signal_w\[8\]
*136 clkgen\.delay_155ns_2\.genblk1\[4\]\.dly_binary\.signal_w\[9\]
*137 clkgen\.delay_155ns_3\.enable_dlycontrol_w
*138 clkgen\.delay_155ns_3\.genblk1\[0\]\.dly_binary\.bypass_in
*139 clkgen\.delay_155ns_3\.genblk1\[0\]\.dly_binary\.in
*140 clkgen\.delay_155ns_3\.genblk1\[0\]\.dly_binary\.out
*141 clkgen\.delay_155ns_3\.genblk1\[0\]\.dly_binary\.signal_w\[0\]
*142 clkgen\.delay_155ns_3\.genblk1\[0\]\.dly_binary\.signal_w\[1\]
*143 clkgen\.delay_155ns_3\.genblk1\[1\]\.dly_binary\.bypass_in
*144 clkgen\.delay_155ns_3\.genblk1\[1\]\.dly_binary\.out
*145 clkgen\.delay_155ns_3\.genblk1\[1\]\.dly_binary\.signal_w\[0\]
*146 clkgen\.delay_155ns_3\.genblk1\[1\]\.dly_binary\.signal_w\[1\]
*147 clkgen\.delay_155ns_3\.genblk1\[1\]\.dly_binary\.signal_w\[2\]
*148 clkgen\.delay_155ns_3\.genblk1\[2\]\.dly_binary\.bypass_in
*149 clkgen\.delay_155ns_3\.genblk1\[2\]\.dly_binary\.out
*150 clkgen\.delay_155ns_3\.genblk1\[2\]\.dly_binary\.signal_w\[0\]
*151 clkgen\.delay_155ns_3\.genblk1\[2\]\.dly_binary\.signal_w\[1\]
*152 clkgen\.delay_155ns_3\.genblk1\[2\]\.dly_binary\.signal_w\[2\]
*153 clkgen\.delay_155ns_3\.genblk1\[2\]\.dly_binary\.signal_w\[3\]
*154 clkgen\.delay_155ns_3\.genblk1\[2\]\.dly_binary\.signal_w\[4\]
*155 clkgen\.delay_155ns_3\.genblk1\[3\]\.dly_binary\.bypass_in
*156 clkgen\.delay_155ns_3\.genblk1\[3\]\.dly_binary\.out
*157 clkgen\.delay_155ns_3\.genblk1\[3\]\.dly_binary\.signal_w\[0\]
*158 clkgen\.delay_155ns_3\.genblk1\[3\]\.dly_binary\.signal_w\[1\]
*159 clkgen\.delay_155ns_3\.genblk1\[3\]\.dly_binary\.signal_w\[2\]
*160 clkgen\.delay_155ns_3\.genblk1\[3\]\.dly_binary\.signal_w\[3\]
*161 clkgen\.delay_155ns_3\.genblk1\[3\]\.dly_binary\.signal_w\[4\]
*162 clkgen\.delay_155ns_3\.genblk1\[3\]\.dly_binary\.signal_w\[5\]
*163 clkgen\.delay_155ns_3\.genblk1\[3\]\.dly_binary\.signal_w\[6\]
*164 clkgen\.delay_155ns_3\.genblk1\[3\]\.dly_binary\.signal_w\[7\]
*165 clkgen\.delay_155ns_3\.genblk1\[3\]\.dly_binary\.signal_w\[8\]
*166 clkgen\.delay_155ns_3\.genblk1\[4\]\.dly_binary\.bypass_in
*167 clkgen\.delay_155ns_3\.genblk1\[4\]\.dly_binary\.signal_w\[0\]
*168 clkgen\.delay_155ns_3\.genblk1\[4\]\.dly_binary\.signal_w\[10\]
*169 clkgen\.delay_155ns_3\.genblk1\[4\]\.dly_binary\.signal_w\[11\]
*170 clkgen\.delay_155ns_3\.genblk1\[4\]\.dly_binary\.signal_w\[12\]
*171 clkgen\.delay_155ns_3\.genblk1\[4\]\.dly_binary\.signal_w\[13\]
*172 clkgen\.delay_155ns_3\.genblk1\[4\]\.dly_binary\.signal_w\[14\]
*173 clkgen\.delay_155ns_3\.genblk1\[4\]\.dly_binary\.signal_w\[15\]
*174 clkgen\.delay_155ns_3\.genblk1\[4\]\.dly_binary\.signal_w\[16\]
*175 clkgen\.delay_155ns_3\.genblk1\[4\]\.dly_binary\.signal_w\[1\]
*176 clkgen\.delay_155ns_3\.genblk1\[4\]\.dly_binary\.signal_w\[2\]
*177 clkgen\.delay_155ns_3\.genblk1\[4\]\.dly_binary\.signal_w\[3\]
*178 clkgen\.delay_155ns_3\.genblk1\[4\]\.dly_binary\.signal_w\[4\]
*179 clkgen\.delay_155ns_3\.genblk1\[4\]\.dly_binary\.signal_w\[5\]
*180 clkgen\.delay_155ns_3\.genblk1\[4\]\.dly_binary\.signal_w\[6\]
*181 clkgen\.delay_155ns_3\.genblk1\[4\]\.dly_binary\.signal_w\[7\]
*182 clkgen\.delay_155ns_3\.genblk1\[4\]\.dly_binary\.signal_w\[8\]
*183 clkgen\.delay_155ns_3\.genblk1\[4\]\.dly_binary\.signal_w\[9\]
*184 clkgen\.enable_loop_in
*185 edgedetect\.dly_315ns_1\.enable_dlycontrol_w
*186 edgedetect\.dly_315ns_1\.genblk1\[0\]\.dly_binary\.bypass_in
*187 edgedetect\.dly_315ns_1\.genblk1\[0\]\.dly_binary\.in
*188 edgedetect\.dly_315ns_1\.genblk1\[0\]\.dly_binary\.out
*189 edgedetect\.dly_315ns_1\.genblk1\[0\]\.dly_binary\.signal_w\[0\]
*190 edgedetect\.dly_315ns_1\.genblk1\[0\]\.dly_binary\.signal_w\[1\]
*191 edgedetect\.dly_315ns_1\.genblk1\[1\]\.dly_binary\.bypass_in
*192 edgedetect\.dly_315ns_1\.genblk1\[1\]\.dly_binary\.out
*193 edgedetect\.dly_315ns_1\.genblk1\[1\]\.dly_binary\.signal_w\[0\]
*194 edgedetect\.dly_315ns_1\.genblk1\[1\]\.dly_binary\.signal_w\[1\]
*195 edgedetect\.dly_315ns_1\.genblk1\[1\]\.dly_binary\.signal_w\[2\]
*196 edgedetect\.dly_315ns_1\.genblk1\[2\]\.dly_binary\.bypass_in
*197 edgedetect\.dly_315ns_1\.genblk1\[2\]\.dly_binary\.out
*198 edgedetect\.dly_315ns_1\.genblk1\[2\]\.dly_binary\.signal_w\[0\]
*199 edgedetect\.dly_315ns_1\.genblk1\[2\]\.dly_binary\.signal_w\[1\]
*200 edgedetect\.dly_315ns_1\.genblk1\[2\]\.dly_binary\.signal_w\[2\]
*201 edgedetect\.dly_315ns_1\.genblk1\[2\]\.dly_binary\.signal_w\[3\]
*202 edgedetect\.dly_315ns_1\.genblk1\[2\]\.dly_binary\.signal_w\[4\]
*203 edgedetect\.dly_315ns_1\.genblk1\[3\]\.dly_binary\.bypass_in
*204 edgedetect\.dly_315ns_1\.genblk1\[3\]\.dly_binary\.out
*205 edgedetect\.dly_315ns_1\.genblk1\[3\]\.dly_binary\.signal_w\[0\]
*206 edgedetect\.dly_315ns_1\.genblk1\[3\]\.dly_binary\.signal_w\[1\]
*207 edgedetect\.dly_315ns_1\.genblk1\[3\]\.dly_binary\.signal_w\[2\]
*208 edgedetect\.dly_315ns_1\.genblk1\[3\]\.dly_binary\.signal_w\[3\]
*209 edgedetect\.dly_315ns_1\.genblk1\[3\]\.dly_binary\.signal_w\[4\]
*210 edgedetect\.dly_315ns_1\.genblk1\[3\]\.dly_binary\.signal_w\[5\]
*211 edgedetect\.dly_315ns_1\.genblk1\[3\]\.dly_binary\.signal_w\[6\]
*212 edgedetect\.dly_315ns_1\.genblk1\[3\]\.dly_binary\.signal_w\[7\]
*213 edgedetect\.dly_315ns_1\.genblk1\[3\]\.dly_binary\.signal_w\[8\]
*214 edgedetect\.dly_315ns_1\.genblk1\[4\]\.dly_binary\.bypass_in
*215 edgedetect\.dly_315ns_1\.genblk1\[4\]\.dly_binary\.out
*216 edgedetect\.dly_315ns_1\.genblk1\[4\]\.dly_binary\.signal_w\[0\]
*217 edgedetect\.dly_315ns_1\.genblk1\[4\]\.dly_binary\.signal_w\[10\]
*218 edgedetect\.dly_315ns_1\.genblk1\[4\]\.dly_binary\.signal_w\[11\]
*219 edgedetect\.dly_315ns_1\.genblk1\[4\]\.dly_binary\.signal_w\[12\]
*220 edgedetect\.dly_315ns_1\.genblk1\[4\]\.dly_binary\.signal_w\[13\]
*221 edgedetect\.dly_315ns_1\.genblk1\[4\]\.dly_binary\.signal_w\[14\]
*222 edgedetect\.dly_315ns_1\.genblk1\[4\]\.dly_binary\.signal_w\[15\]
*223 edgedetect\.dly_315ns_1\.genblk1\[4\]\.dly_binary\.signal_w\[16\]
*224 edgedetect\.dly_315ns_1\.genblk1\[4\]\.dly_binary\.signal_w\[1\]
*225 edgedetect\.dly_315ns_1\.genblk1\[4\]\.dly_binary\.signal_w\[2\]
*226 edgedetect\.dly_315ns_1\.genblk1\[4\]\.dly_binary\.signal_w\[3\]
*227 edgedetect\.dly_315ns_1\.genblk1\[4\]\.dly_binary\.signal_w\[4\]
*228 edgedetect\.dly_315ns_1\.genblk1\[4\]\.dly_binary\.signal_w\[5\]
*229 edgedetect\.dly_315ns_1\.genblk1\[4\]\.dly_binary\.signal_w\[6\]
*230 edgedetect\.dly_315ns_1\.genblk1\[4\]\.dly_binary\.signal_w\[7\]
*231 edgedetect\.dly_315ns_1\.genblk1\[4\]\.dly_binary\.signal_w\[8\]
*232 edgedetect\.dly_315ns_1\.genblk1\[4\]\.dly_binary\.signal_w\[9\]
*233 edgedetect\.dly_315ns_1\.genblk1\[5\]\.dly_binary\.bypass_in
*234 edgedetect\.dly_315ns_1\.genblk1\[5\]\.dly_binary\.out
*235 edgedetect\.dly_315ns_1\.genblk1\[5\]\.dly_binary\.signal_w\[0\]
*236 edgedetect\.dly_315ns_1\.genblk1\[5\]\.dly_binary\.signal_w\[10\]
*237 edgedetect\.dly_315ns_1\.genblk1\[5\]\.dly_binary\.signal_w\[11\]
*238 edgedetect\.dly_315ns_1\.genblk1\[5\]\.dly_binary\.signal_w\[12\]
*239 edgedetect\.dly_315ns_1\.genblk1\[5\]\.dly_binary\.signal_w\[13\]
*240 edgedetect\.dly_315ns_1\.genblk1\[5\]\.dly_binary\.signal_w\[14\]
*241 edgedetect\.dly_315ns_1\.genblk1\[5\]\.dly_binary\.signal_w\[15\]
*242 edgedetect\.dly_315ns_1\.genblk1\[5\]\.dly_binary\.signal_w\[16\]
*243 edgedetect\.dly_315ns_1\.genblk1\[5\]\.dly_binary\.signal_w\[17\]
*244 edgedetect\.dly_315ns_1\.genblk1\[5\]\.dly_binary\.signal_w\[18\]
*245 edgedetect\.dly_315ns_1\.genblk1\[5\]\.dly_binary\.signal_w\[19\]
*246 edgedetect\.dly_315ns_1\.genblk1\[5\]\.dly_binary\.signal_w\[1\]
*247 edgedetect\.dly_315ns_1\.genblk1\[5\]\.dly_binary\.signal_w\[20\]
*248 edgedetect\.dly_315ns_1\.genblk1\[5\]\.dly_binary\.signal_w\[21\]
*249 edgedetect\.dly_315ns_1\.genblk1\[5\]\.dly_binary\.signal_w\[22\]
*250 edgedetect\.dly_315ns_1\.genblk1\[5\]\.dly_binary\.signal_w\[23\]
*251 edgedetect\.dly_315ns_1\.genblk1\[5\]\.dly_binary\.signal_w\[24\]
*252 edgedetect\.dly_315ns_1\.genblk1\[5\]\.dly_binary\.signal_w\[25\]
*253 edgedetect\.dly_315ns_1\.genblk1\[5\]\.dly_binary\.signal_w\[26\]
*254 edgedetect\.dly_315ns_1\.genblk1\[5\]\.dly_binary\.signal_w\[27\]
*255 edgedetect\.dly_315ns_1\.genblk1\[5\]\.dly_binary\.signal_w\[28\]
*256 edgedetect\.dly_315ns_1\.genblk1\[5\]\.dly_binary\.signal_w\[29\]
*257 edgedetect\.dly_315ns_1\.genblk1\[5\]\.dly_binary\.signal_w\[2\]
*258 edgedetect\.dly_315ns_1\.genblk1\[5\]\.dly_binary\.signal_w\[30\]
*259 edgedetect\.dly_315ns_1\.genblk1\[5\]\.dly_binary\.signal_w\[31\]
*260 edgedetect\.dly_315ns_1\.genblk1\[5\]\.dly_binary\.signal_w\[32\]
*261 edgedetect\.dly_315ns_1\.genblk1\[5\]\.dly_binary\.signal_w\[3\]
*262 edgedetect\.dly_315ns_1\.genblk1\[5\]\.dly_binary\.signal_w\[4\]
*263 edgedetect\.dly_315ns_1\.genblk1\[5\]\.dly_binary\.signal_w\[5\]
*264 edgedetect\.dly_315ns_1\.genblk1\[5\]\.dly_binary\.signal_w\[6\]
*265 edgedetect\.dly_315ns_1\.genblk1\[5\]\.dly_binary\.signal_w\[7\]
*266 edgedetect\.dly_315ns_1\.genblk1\[5\]\.dly_binary\.signal_w\[8\]
*267 edgedetect\.dly_315ns_1\.genblk1\[5\]\.dly_binary\.signal_w\[9\]
*268 edgedetect\.ena_in
*269 edgedetect\.start_conv_edge_w
*270 ANTENNA_clkgen\.delay_155ns_1\.enablebuffer_A
*271 ANTENNA_clkgen\.delay_155ns_1\.genblk1\[0\]\.bypass_enable_B
*272 ANTENNA_clkgen\.delay_155ns_1\.genblk1\[0\]\.dly_binary\.and_bypass_switch_A_N
*273 ANTENNA_clkgen\.delay_155ns_1\.genblk1\[0\]\.dly_binary\.out_mux_S
*274 ANTENNA_clkgen\.delay_155ns_1\.genblk1\[1\]\.bypass_enable_B
*275 ANTENNA_clkgen\.delay_155ns_1\.genblk1\[2\]\.bypass_enable_B
*276 ANTENNA_clkgen\.delay_155ns_1\.genblk1\[3\]\.bypass_enable_B
*277 ANTENNA_clkgen\.delay_155ns_1\.genblk1\[4\]\.bypass_enable_B
*278 ANTENNA_clkgen\.delay_155ns_1\.genblk1\[4\]\.dly_binary\.out_mux_A0
*279 ANTENNA_clkgen\.delay_155ns_2\.enablebuffer_A
*280 ANTENNA_clkgen\.delay_155ns_2\.genblk1\[0\]\.bypass_enable_A
*281 ANTENNA_clkgen\.delay_155ns_2\.genblk1\[0\]\.bypass_enable_B
*282 ANTENNA_clkgen\.delay_155ns_2\.genblk1\[1\]\.bypass_enable_A
*283 ANTENNA_clkgen\.delay_155ns_2\.genblk1\[1\]\.bypass_enable_B
*284 ANTENNA_clkgen\.delay_155ns_2\.genblk1\[1\]\.dly_binary\.and_bypass_switch_A_N
*285 ANTENNA_clkgen\.delay_155ns_2\.genblk1\[1\]\.dly_binary\.out_mux_S
*286 ANTENNA_clkgen\.delay_155ns_2\.genblk1\[2\]\.bypass_enable_A
*287 ANTENNA_clkgen\.delay_155ns_2\.genblk1\[2\]\.bypass_enable_B
*288 ANTENNA_clkgen\.delay_155ns_2\.genblk1\[3\]\.bypass_enable_A
*289 ANTENNA_clkgen\.delay_155ns_2\.genblk1\[3\]\.bypass_enable_B
*290 ANTENNA_clkgen\.delay_155ns_2\.genblk1\[4\]\.bypass_enable_A
*291 ANTENNA_clkgen\.delay_155ns_2\.genblk1\[4\]\.bypass_enable_B
*292 ANTENNA_clkgen\.delay_155ns_2\.genblk1\[4\]\.dly_binary\.out_mux_A0
*293 ANTENNA_clkgen\.delay_155ns_3\.enablebuffer_A
*294 ANTENNA_clkgen\.delay_155ns_3\.genblk1\[0\]\.bypass_enable_A
*295 ANTENNA_clkgen\.delay_155ns_3\.genblk1\[0\]\.bypass_enable_B
*296 ANTENNA_clkgen\.delay_155ns_3\.genblk1\[1\]\.bypass_enable_A
*297 ANTENNA_clkgen\.delay_155ns_3\.genblk1\[1\]\.bypass_enable_B
*298 ANTENNA_clkgen\.delay_155ns_3\.genblk1\[2\]\.bypass_enable_A
*299 ANTENNA_clkgen\.delay_155ns_3\.genblk1\[2\]\.bypass_enable_B
*300 ANTENNA_clkgen\.delay_155ns_3\.genblk1\[3\]\.bypass_enable_A
*301 ANTENNA_clkgen\.delay_155ns_3\.genblk1\[3\]\.bypass_enable_B
*302 ANTENNA_clkgen\.delay_155ns_3\.genblk1\[4\]\.bypass_enable_A
*303 ANTENNA_clkgen\.delay_155ns_3\.genblk1\[4\]\.bypass_enable_B
*304 ANTENNA_edgedetect\.dly_315ns_1\.enablebuffer_A
*305 ANTENNA_edgedetect\.dly_315ns_1\.genblk1\[0\]\.bypass_enable_A
*306 ANTENNA_edgedetect\.dly_315ns_1\.genblk1\[0\]\.bypass_enable_B
*307 ANTENNA_edgedetect\.dly_315ns_1\.genblk1\[1\]\.bypass_enable_A
*308 ANTENNA_edgedetect\.dly_315ns_1\.genblk1\[1\]\.bypass_enable_B
*309 ANTENNA_edgedetect\.dly_315ns_1\.genblk1\[2\]\.bypass_enable_A
*310 ANTENNA_edgedetect\.dly_315ns_1\.genblk1\[2\]\.bypass_enable_B
*311 ANTENNA_edgedetect\.dly_315ns_1\.genblk1\[2\]\.dly_binary\.and_bypass_switch_A_N
*312 ANTENNA_edgedetect\.dly_315ns_1\.genblk1\[2\]\.dly_binary\.out_mux_S
*313 ANTENNA_edgedetect\.dly_315ns_1\.genblk1\[3\]\.bypass_enable_A
*314 ANTENNA_edgedetect\.dly_315ns_1\.genblk1\[3\]\.bypass_enable_B
*315 ANTENNA_edgedetect\.dly_315ns_1\.genblk1\[3\]\.dly_binary\.and_bypass_switch_A_N
*316 ANTENNA_edgedetect\.dly_315ns_1\.genblk1\[3\]\.dly_binary\.genblk1\[1\]\.delay_unit_in
*317 ANTENNA_edgedetect\.dly_315ns_1\.genblk1\[3\]\.dly_binary\.out_mux_S
*318 ANTENNA_edgedetect\.dly_315ns_1\.genblk1\[4\]\.bypass_enable_A
*319 ANTENNA_edgedetect\.dly_315ns_1\.genblk1\[4\]\.bypass_enable_B
*320 ANTENNA_edgedetect\.dly_315ns_1\.genblk1\[4\]\.dly_binary\.and_bypass_switch_A_N
*321 ANTENNA_edgedetect\.dly_315ns_1\.genblk1\[4\]\.dly_binary\.out_mux_A0
*322 ANTENNA_edgedetect\.dly_315ns_1\.genblk1\[4\]\.dly_binary\.out_mux_S
*323 ANTENNA_edgedetect\.dly_315ns_1\.genblk1\[5\]\.bypass_enable_A
*324 ANTENNA_edgedetect\.dly_315ns_1\.genblk1\[5\]\.bypass_enable_B
*325 ANTENNA_inbuf_1_A
*326 ANTENNA_inbuf_2_A
*327 ANTENNA_inbuf_3_A
*328 ANTENNA_outbuf_3_A
*329 ANTENNA_outbuf_4_A
*330 ANTENNA_outbuf_5_A
*331 ANTENNA_outbuf_6_A
*332 FILLER_0_122
*333 FILLER_0_125
*334 FILLER_0_15
*335 FILLER_0_152
*336 FILLER_0_156
*337 FILLER_0_183
*338 FILLER_0_187
*339 FILLER_0_214
*340 FILLER_0_218
*341 FILLER_0_226
*342 FILLER_0_232
*343 FILLER_0_238
*344 FILLER_0_244
*345 FILLER_0_249
*346 FILLER_0_253
*347 FILLER_0_265
*348 FILLER_0_277
*349 FILLER_0_28
*350 FILLER_0_280
*351 FILLER_0_292
*352 FILLER_0_3
*353 FILLER_0_304
*354 FILLER_0_311
*355 FILLER_0_319
*356 FILLER_0_32
*357 FILLER_0_60
*358 FILLER_0_63
*359 FILLER_0_91
*360 FILLER_0_94
*361 FILLER_10_121
*362 FILLER_10_127
*363 FILLER_10_153
*364 FILLER_10_156
*365 FILLER_10_16
*366 FILLER_10_163
*367 FILLER_10_172
*368 FILLER_10_176
*369 FILLER_10_202
*370 FILLER_10_211
*371 FILLER_10_218
*372 FILLER_10_245
*373 FILLER_10_274
*374 FILLER_10_278
*375 FILLER_10_280
*376 FILLER_10_29
*377 FILLER_10_3
*378 FILLER_10_307
*379 FILLER_10_319
*380 FILLER_10_32
*381 FILLER_10_40
*382 FILLER_10_44
*383 FILLER_10_70
*384 FILLER_10_80
*385 FILLER_10_9
*386 FILLER_10_90
*387 FILLER_10_94
*388 FILLER_11_122
*389 FILLER_11_125
*390 FILLER_11_152
*391 FILLER_11_158
*392 FILLER_11_184
*393 FILLER_11_187
*394 FILLER_11_191
*395 FILLER_11_217
*396 FILLER_11_246
*397 FILLER_11_249
*398 FILLER_11_253
*399 FILLER_11_259
*400 FILLER_11_288
*401 FILLER_11_3
*402 FILLER_11_300
*403 FILLER_11_308
*404 FILLER_11_31
*405 FILLER_11_311
*406 FILLER_11_319
*407 FILLER_11_60
*408 FILLER_11_63
*409 FILLER_11_92
*410 FILLER_11_96
*411 FILLER_12_121
*412 FILLER_12_127
*413 FILLER_12_153
*414 FILLER_12_156
*415 FILLER_12_16
*416 FILLER_12_163
*417 FILLER_12_172
*418 FILLER_12_178
*419 FILLER_12_204
*420 FILLER_12_210
*421 FILLER_12_216
*422 FILLER_12_218
*423 FILLER_12_245
*424 FILLER_12_251
*425 FILLER_12_277
*426 FILLER_12_280
*427 FILLER_12_284
*428 FILLER_12_29
*429 FILLER_12_292
*430 FILLER_12_3
*431 FILLER_12_318
*432 FILLER_12_32
*433 FILLER_12_37
*434 FILLER_12_50
*435 FILLER_12_57
*436 FILLER_12_61
*437 FILLER_12_87
*438 FILLER_12_9
*439 FILLER_12_94
*440 FILLER_13_122
*441 FILLER_13_125
*442 FILLER_13_136
*443 FILLER_13_146
*444 FILLER_13_15
*445 FILLER_13_177
*446 FILLER_13_183
*447 FILLER_13_187
*448 FILLER_13_214
*449 FILLER_13_243
*450 FILLER_13_247
*451 FILLER_13_249
*452 FILLER_13_25
*453 FILLER_13_276
*454 FILLER_13_282
*455 FILLER_13_3
*456 FILLER_13_308
*457 FILLER_13_311
*458 FILLER_13_319
*459 FILLER_13_54
*460 FILLER_13_60
*461 FILLER_13_63
*462 FILLER_13_67
*463 FILLER_13_93
*464 FILLER_14_102
*465 FILLER_14_108
*466 FILLER_14_118
*467 FILLER_14_14
*468 FILLER_14_147
*469 FILLER_14_153
*470 FILLER_14_156
*471 FILLER_14_162
*472 FILLER_14_191
*473 FILLER_14_200
*474 FILLER_14_206
*475 FILLER_14_212
*476 FILLER_14_216
*477 FILLER_14_218
*478 FILLER_14_222
*479 FILLER_14_253
*480 FILLER_14_259
*481 FILLER_14_265
*482 FILLER_14_27
*483 FILLER_14_271
*484 FILLER_14_277
*485 FILLER_14_280
*486 FILLER_14_3
*487 FILLER_14_307
*488 FILLER_14_313
*489 FILLER_14_319
*490 FILLER_14_32
*491 FILLER_14_59
*492 FILLER_14_65
*493 FILLER_14_7
*494 FILLER_14_91
*495 FILLER_14_94
*496 FILLER_15_122
*497 FILLER_15_125
*498 FILLER_15_129
*499 FILLER_15_155
*500 FILLER_15_16
*501 FILLER_15_184
*502 FILLER_15_187
*503 FILLER_15_193
*504 FILLER_15_222
*505 FILLER_15_228
*506 FILLER_15_234
*507 FILLER_15_240
*508 FILLER_15_246
*509 FILLER_15_249
*510 FILLER_15_276
*511 FILLER_15_282
*512 FILLER_15_29
*513 FILLER_15_3
*514 FILLER_15_308
*515 FILLER_15_311
*516 FILLER_15_315
*517 FILLER_15_319
*518 FILLER_15_58
*519 FILLER_15_63
*520 FILLER_15_67
*521 FILLER_15_9
*522 FILLER_15_93
*523 FILLER_16_124
*524 FILLER_16_153
*525 FILLER_16_156
*526 FILLER_16_16
*527 FILLER_16_163
*528 FILLER_16_171
*529 FILLER_16_200
*530 FILLER_16_209
*531 FILLER_16_215
*532 FILLER_16_218
*533 FILLER_16_245
*534 FILLER_16_274
*535 FILLER_16_278
*536 FILLER_16_280
*537 FILLER_16_29
*538 FILLER_16_3
*539 FILLER_16_307
*540 FILLER_16_313
*541 FILLER_16_319
*542 FILLER_16_32
*543 FILLER_16_40
*544 FILLER_16_44
*545 FILLER_16_47
*546 FILLER_16_76
*547 FILLER_16_86
*548 FILLER_16_9
*549 FILLER_16_92
*550 FILLER_16_94
*551 FILLER_16_98
*552 FILLER_17_120
*553 FILLER_17_125
*554 FILLER_17_133
*555 FILLER_17_142
*556 FILLER_17_175
*557 FILLER_17_184
*558 FILLER_17_187
*559 FILLER_17_214
*560 FILLER_17_243
*561 FILLER_17_247
*562 FILLER_17_249
*563 FILLER_17_276
*564 FILLER_17_3
*565 FILLER_17_305
*566 FILLER_17_309
*567 FILLER_17_31
*568 FILLER_17_311
*569 FILLER_17_315
*570 FILLER_17_319
*571 FILLER_17_60
*572 FILLER_17_63
*573 FILLER_17_91
*574 FILLER_18_124
*575 FILLER_18_153
*576 FILLER_18_156
*577 FILLER_18_16
*578 FILLER_18_163
*579 FILLER_18_171
*580 FILLER_18_197
*581 FILLER_18_206
*582 FILLER_18_215
*583 FILLER_18_218
*584 FILLER_18_245
*585 FILLER_18_274
*586 FILLER_18_278
*587 FILLER_18_280
*588 FILLER_18_29
*589 FILLER_18_3
*590 FILLER_18_307
*591 FILLER_18_317
*592 FILLER_18_32
*593 FILLER_18_36
*594 FILLER_18_62
*595 FILLER_18_91
*596 FILLER_18_94
*597 FILLER_18_98
*598 FILLER_19_122
*599 FILLER_19_125
*600 FILLER_19_129
*601 FILLER_19_155
*602 FILLER_19_184
*603 FILLER_19_187
*604 FILLER_19_193
*605 FILLER_19_219
*606 FILLER_19_228
*607 FILLER_19_234
*608 FILLER_19_240
*609 FILLER_19_246
*610 FILLER_19_249
*611 FILLER_19_276
*612 FILLER_19_3
*613 FILLER_19_305
*614 FILLER_19_309
*615 FILLER_19_31
*616 FILLER_19_311
*617 FILLER_19_315
*618 FILLER_19_319
*619 FILLER_19_60
*620 FILLER_19_63
*621 FILLER_19_90
*622 FILLER_19_96
*623 FILLER_1_115
*624 FILLER_1_122
*625 FILLER_1_125
*626 FILLER_1_133
*627 FILLER_1_142
*628 FILLER_1_148
*629 FILLER_1_177
*630 FILLER_1_183
*631 FILLER_1_187
*632 FILLER_1_214
*633 FILLER_1_243
*634 FILLER_1_247
*635 FILLER_1_249
*636 FILLER_1_253
*637 FILLER_1_265
*638 FILLER_1_277
*639 FILLER_1_289
*640 FILLER_1_3
*641 FILLER_1_301
*642 FILLER_1_309
*643 FILLER_1_31
*644 FILLER_1_311
*645 FILLER_1_319
*646 FILLER_1_60
*647 FILLER_1_63
*648 FILLER_1_71
*649 FILLER_1_81
*650 FILLER_1_89
*651 FILLER_20_122
*652 FILLER_20_125
*653 FILLER_20_152
*654 FILLER_20_156
*655 FILLER_20_16
*656 FILLER_20_183
*657 FILLER_20_187
*658 FILLER_20_214
*659 FILLER_20_218
*660 FILLER_20_245
*661 FILLER_20_249
*662 FILLER_20_276
*663 FILLER_20_280
*664 FILLER_20_29
*665 FILLER_20_3
*666 FILLER_20_308
*667 FILLER_20_311
*668 FILLER_20_315
*669 FILLER_20_319
*670 FILLER_20_32
*671 FILLER_20_60
*672 FILLER_20_63
*673 FILLER_20_9
*674 FILLER_20_91
*675 FILLER_20_94
*676 FILLER_2_102
*677 FILLER_2_114
*678 FILLER_2_143
*679 FILLER_2_152
*680 FILLER_2_156
*681 FILLER_2_16
*682 FILLER_2_163
*683 FILLER_2_167
*684 FILLER_2_193
*685 FILLER_2_199
*686 FILLER_2_205
*687 FILLER_2_211
*688 FILLER_2_218
*689 FILLER_2_245
*690 FILLER_2_251
*691 FILLER_2_263
*692 FILLER_2_275
*693 FILLER_2_280
*694 FILLER_2_29
*695 FILLER_2_292
*696 FILLER_2_3
*697 FILLER_2_304
*698 FILLER_2_316
*699 FILLER_2_32
*700 FILLER_2_36
*701 FILLER_2_62
*702 FILLER_2_9
*703 FILLER_2_91
*704 FILLER_2_94
*705 FILLER_3_12
*706 FILLER_3_122
*707 FILLER_3_125
*708 FILLER_3_131
*709 FILLER_3_160
*710 FILLER_3_169
*711 FILLER_3_175
*712 FILLER_3_181
*713 FILLER_3_185
*714 FILLER_3_187
*715 FILLER_3_214
*716 FILLER_3_243
*717 FILLER_3_247
*718 FILLER_3_249
*719 FILLER_3_261
*720 FILLER_3_273
*721 FILLER_3_285
*722 FILLER_3_297
*723 FILLER_3_3
*724 FILLER_3_309
*725 FILLER_3_311
*726 FILLER_3_319
*727 FILLER_3_41
*728 FILLER_3_47
*729 FILLER_3_60
*730 FILLER_3_63
*731 FILLER_3_90
*732 FILLER_3_96
*733 FILLER_4_121
*734 FILLER_4_127
*735 FILLER_4_153
*736 FILLER_4_156
*737 FILLER_4_16
*738 FILLER_4_183
*739 FILLER_4_189
*740 FILLER_4_215
*741 FILLER_4_218
*742 FILLER_4_222
*743 FILLER_4_228
*744 FILLER_4_234
*745 FILLER_4_240
*746 FILLER_4_246
*747 FILLER_4_258
*748 FILLER_4_270
*749 FILLER_4_278
*750 FILLER_4_280
*751 FILLER_4_29
*752 FILLER_4_292
*753 FILLER_4_3
*754 FILLER_4_304
*755 FILLER_4_316
*756 FILLER_4_32
*757 FILLER_4_36
*758 FILLER_4_62
*759 FILLER_4_91
*760 FILLER_4_94
*761 FILLER_5_122
*762 FILLER_5_125
*763 FILLER_5_131
*764 FILLER_5_160
*765 FILLER_5_169
*766 FILLER_5_178
*767 FILLER_5_184
*768 FILLER_5_187
*769 FILLER_5_194
*770 FILLER_5_200
*771 FILLER_5_206
*772 FILLER_5_232
*773 FILLER_5_238
*774 FILLER_5_244
*775 FILLER_5_249
*776 FILLER_5_276
*777 FILLER_5_288
*778 FILLER_5_3
*779 FILLER_5_300
*780 FILLER_5_308
*781 FILLER_5_31
*782 FILLER_5_311
*783 FILLER_5_319
*784 FILLER_5_60
*785 FILLER_5_63
*786 FILLER_5_67
*787 FILLER_5_93
*788 FILLER_6_121
*789 FILLER_6_150
*790 FILLER_6_154
*791 FILLER_6_156
*792 FILLER_6_16
*793 FILLER_6_183
*794 FILLER_6_189
*795 FILLER_6_215
*796 FILLER_6_218
*797 FILLER_6_245
*798 FILLER_6_274
*799 FILLER_6_278
*800 FILLER_6_280
*801 FILLER_6_288
*802 FILLER_6_29
*803 FILLER_6_3
*804 FILLER_6_314
*805 FILLER_6_32
*806 FILLER_6_36
*807 FILLER_6_62
*808 FILLER_6_9
*809 FILLER_6_91
*810 FILLER_6_94
*811 FILLER_7_122
*812 FILLER_7_125
*813 FILLER_7_152
*814 FILLER_7_183
*815 FILLER_7_187
*816 FILLER_7_19
*817 FILLER_7_214
*818 FILLER_7_243
*819 FILLER_7_247
*820 FILLER_7_249
*821 FILLER_7_276
*822 FILLER_7_3
*823 FILLER_7_305
*824 FILLER_7_309
*825 FILLER_7_311
*826 FILLER_7_319
*827 FILLER_7_48
*828 FILLER_7_58
*829 FILLER_7_63
*830 FILLER_7_67
*831 FILLER_7_9
*832 FILLER_7_93
*833 FILLER_8_121
*834 FILLER_8_127
*835 FILLER_8_153
*836 FILLER_8_156
*837 FILLER_8_16
*838 FILLER_8_163
*839 FILLER_8_169
*840 FILLER_8_195
*841 FILLER_8_204
*842 FILLER_8_210
*843 FILLER_8_216
*844 FILLER_8_218
*845 FILLER_8_222
*846 FILLER_8_226
*847 FILLER_8_252
*848 FILLER_8_258
*849 FILLER_8_264
*850 FILLER_8_276
*851 FILLER_8_280
*852 FILLER_8_29
*853 FILLER_8_3
*854 FILLER_8_307
*855 FILLER_8_319
*856 FILLER_8_32
*857 FILLER_8_61
*858 FILLER_8_9
*859 FILLER_8_90
*860 FILLER_8_94
*861 FILLER_9_111
*862 FILLER_9_115
*863 FILLER_9_122
*864 FILLER_9_125
*865 FILLER_9_129
*866 FILLER_9_142
*867 FILLER_9_171
*868 FILLER_9_180
*869 FILLER_9_187
*870 FILLER_9_215
*871 FILLER_9_244
*872 FILLER_9_249
*873 FILLER_9_276
*874 FILLER_9_3