* NGSPICE file created from adc_clkgen_with_edgedetect.ext - technology: sky130A

* Black-box entry subcircuit for sky130_fd_sc_hd__tapvpwrvgnd_1 abstract view
.subckt sky130_fd_sc_hd__tapvpwrvgnd_1 VGND VPWR
.ends

* Black-box entry subcircuit for sky130_mm_sc_hd_dly5ns abstract view
.subckt sky130_mm_sc_hd_dly5ns in out VPWR VGND VPB VNB
.ends

* Black-box entry subcircuit for sky130_fd_sc_hd__decap_4 abstract view
.subckt sky130_fd_sc_hd__decap_4 VGND VNB VPB VPWR
.ends

* Black-box entry subcircuit for sky130_ef_sc_hd__decap_12 abstract view
.subckt sky130_ef_sc_hd__decap_12 VGND VPWR VPB VNB
.ends

* Black-box entry subcircuit for sky130_fd_sc_hd__fill_1 abstract view
.subckt sky130_fd_sc_hd__fill_1 VGND VNB VPB VPWR
.ends

* Black-box entry subcircuit for sky130_fd_sc_hd__decap_3 abstract view
.subckt sky130_fd_sc_hd__decap_3 VGND VNB VPB VPWR
.ends

* Black-box entry subcircuit for sky130_fd_sc_hd__decap_6 abstract view
.subckt sky130_fd_sc_hd__decap_6 VGND VNB VPB VPWR
.ends

* Black-box entry subcircuit for sky130_fd_sc_hd__decap_8 abstract view
.subckt sky130_fd_sc_hd__decap_8 VGND VNB VPB VPWR
.ends

* Black-box entry subcircuit for sky130_fd_sc_hd__fill_2 abstract view
.subckt sky130_fd_sc_hd__fill_2 VGND VNB VPB VPWR
.ends

* Black-box entry subcircuit for sky130_fd_sc_hd__o21ba_2 abstract view
.subckt sky130_fd_sc_hd__o21ba_2 A1 A2 B1_N VGND VNB VPB VPWR X
.ends

* Black-box entry subcircuit for sky130_fd_sc_hd__and2b_2 abstract view
.subckt sky130_fd_sc_hd__and2b_2 A_N B VGND VNB VPB VPWR X
.ends

* Black-box entry subcircuit for sky130_fd_sc_hd__inv_2 abstract view
.subckt sky130_fd_sc_hd__inv_2 A VGND VNB VPB VPWR Y
.ends

.subckt adc_clkgen_with_edgedetect VGND VPWR clk_comp clk_dig comp_trig ena_in start_conv
XTAP_199 VGND VPWR sky130_fd_sc_hd__tapvpwrvgnd_1
XTAP_188 VGND VPWR sky130_fd_sc_hd__tapvpwrvgnd_1
XTAP_177 VGND VPWR sky130_fd_sc_hd__tapvpwrvgnd_1
Xclkgen.delay_100ns_1.genblk1\[9\].delay_unit clkgen.delay_100ns_1.genblk1\[9\].delay_unit/in
+ clkgen.delay_100ns_1.genblk1\[9\].delay_unit/out VPWR VGND VPWR VGND sky130_mm_sc_hd_dly5ns
XFILLER_26_85 VGND VGND VPWR VPWR sky130_fd_sc_hd__decap_4
XFILLER_9_137 VGND VPWR VPWR VGND sky130_ef_sc_hd__decap_12
XFILLER_13_111 VGND VGND VPWR VPWR sky130_fd_sc_hd__fill_1
XFILLER_23_53 VGND VGND VPWR VPWR sky130_fd_sc_hd__decap_3
XFILLER_2_165 VGND VPWR VPWR VGND sky130_ef_sc_hd__decap_12
XFILLER_2_121 VGND VPWR VPWR VGND sky130_ef_sc_hd__decap_12
XFILLER_0_57 VGND VPWR VPWR VGND sky130_ef_sc_hd__decap_12
XFILLER_9_55 VGND VGND VPWR VPWR sky130_fd_sc_hd__fill_1
XFILLER_38_139 VGND VGND VPWR VPWR sky130_fd_sc_hd__fill_1
XFILLER_34_85 VGND VPWR VPWR VGND sky130_ef_sc_hd__decap_12
XFILLER_44_109 VGND VPWR VPWR VGND sky130_ef_sc_hd__decap_12
XFILLER_37_161 VGND VGND VPWR VPWR sky130_fd_sc_hd__decap_6
XFILLER_45_51 VGND VGND VPWR VPWR sky130_fd_sc_hd__decap_4
XFILLER_29_96 VGND VPWR VPWR VGND sky130_ef_sc_hd__decap_12
XFILLER_26_109 VGND VPWR VPWR VGND sky130_ef_sc_hd__decap_12
XFILLER_31_31 VGND VPWR VPWR VGND sky130_ef_sc_hd__decap_12
XFILLER_25_164 VGND VGND VPWR VPWR sky130_fd_sc_hd__decap_4
XFILLER_17_109 VGND VGND VPWR VPWR sky130_fd_sc_hd__decap_3
XFILLER_31_167 VGND VGND VPWR VPWR sky130_fd_sc_hd__fill_1
XFILLER_31_101 VGND VGND VPWR VPWR sky130_fd_sc_hd__decap_8
XTAP_189 VGND VPWR sky130_fd_sc_hd__tapvpwrvgnd_1
XTAP_178 VGND VPWR sky130_fd_sc_hd__tapvpwrvgnd_1
XTAP_167 VGND VPWR sky130_fd_sc_hd__tapvpwrvgnd_1
XTAP_156 VGND VPWR sky130_fd_sc_hd__tapvpwrvgnd_1
XTAP_101 VGND VPWR sky130_fd_sc_hd__tapvpwrvgnd_1
XTAP_112 VGND VPWR sky130_fd_sc_hd__tapvpwrvgnd_1
XTAP_123 VGND VPWR sky130_fd_sc_hd__tapvpwrvgnd_1
XTAP_134 VGND VPWR sky130_fd_sc_hd__tapvpwrvgnd_1
XTAP_145 VGND VPWR sky130_fd_sc_hd__tapvpwrvgnd_1
XFILLER_42_85 VGND VPWR VPWR VGND sky130_ef_sc_hd__decap_12
XFILLER_42_41 VGND VPWR VPWR VGND sky130_ef_sc_hd__decap_12
XFILLER_3_57 VGND VPWR VPWR VGND sky130_ef_sc_hd__decap_12
XFILLER_9_105 VGND VGND VPWR VPWR sky130_fd_sc_hd__decap_6
XFILLER_9_149 VGND VPWR VPWR VGND sky130_ef_sc_hd__decap_12
XFILLER_13_167 VGND VGND VPWR VPWR sky130_fd_sc_hd__fill_1
XFILLER_2_133 VGND VGND VPWR VPWR sky130_fd_sc_hd__decap_6
XFILLER_0_69 VGND VPWR VPWR VGND sky130_ef_sc_hd__decap_12
XFILLER_9_23 VGND VPWR VPWR VGND sky130_ef_sc_hd__decap_12
XFILLER_43_3 VGND VPWR VPWR VGND sky130_ef_sc_hd__decap_12
XFILLER_34_97 VGND VPWR VPWR VGND sky130_ef_sc_hd__decap_12
XFILLER_29_75 VGND VGND VPWR VPWR sky130_fd_sc_hd__fill_1
XFILLER_29_42 VGND VPWR VPWR VGND sky130_ef_sc_hd__decap_12
XFILLER_34_121 VGND VPWR VPWR VGND sky130_ef_sc_hd__decap_12
XFILLER_25_110 VGND VGND VPWR VPWR sky130_fd_sc_hd__fill_2
XFILLER_15_55 VGND VGND VPWR VPWR sky130_fd_sc_hd__fill_1
XFILLER_31_113 VGND VPWR VPWR VGND sky130_ef_sc_hd__decap_12
XFILLER_31_43 VGND VPWR VPWR VGND sky130_ef_sc_hd__decap_12
Xclkgen.delay_100ns_2.genblk1\[12\].delay_unit clkgen.delay_100ns_2.genblk1\[12\].delay_unit/in
+ clkgen.delay_100ns_2.genblk1\[13\].delay_unit/in VPWR VGND VPWR VGND sky130_mm_sc_hd_dly5ns
XFILLER_16_121 VGND VPWR VPWR VGND sky130_ef_sc_hd__decap_12
XFILLER_15_77 VGND VPWR VPWR VGND sky130_ef_sc_hd__decap_12
XTAP_179 VGND VPWR sky130_fd_sc_hd__tapvpwrvgnd_1
XTAP_168 VGND VPWR sky130_fd_sc_hd__tapvpwrvgnd_1
XTAP_157 VGND VPWR sky130_fd_sc_hd__tapvpwrvgnd_1
XTAP_146 VGND VPWR sky130_fd_sc_hd__tapvpwrvgnd_1
XTAP_102 VGND VPWR sky130_fd_sc_hd__tapvpwrvgnd_1
XTAP_113 VGND VPWR sky130_fd_sc_hd__tapvpwrvgnd_1
XTAP_124 VGND VPWR sky130_fd_sc_hd__tapvpwrvgnd_1
XTAP_135 VGND VPWR sky130_fd_sc_hd__tapvpwrvgnd_1
XFILLER_42_97 VGND VPWR VPWR VGND sky130_ef_sc_hd__decap_12
XFILLER_42_53 VGND VPWR VPWR VGND sky130_ef_sc_hd__decap_12
XFILLER_13_113 VGND VPWR VPWR VGND sky130_ef_sc_hd__decap_12
XFILLER_3_69 VGND VPWR VPWR VGND sky130_ef_sc_hd__decap_12
Xclkgen.delay_100ns_3.genblk1\[2\].delay_unit clkgen.delay_100ns_3.genblk1\[2\].delay_unit/in
+ clkgen.delay_100ns_3.genblk1\[3\].delay_unit/in VPWR VGND VPWR VGND sky130_mm_sc_hd_dly5ns
XFILLER_6_109 VGND VPWR VPWR VGND sky130_ef_sc_hd__decap_12
XFILLER_12_23 VGND VGND VPWR VPWR sky130_fd_sc_hd__decap_4
XFILLER_23_77 VGND VGND VPWR VPWR sky130_fd_sc_hd__decap_6
XFILLER_3_3 VGND VPWR VPWR VGND sky130_ef_sc_hd__decap_12
XFILLER_0_15 VGND VPWR VPWR VGND sky130_ef_sc_hd__decap_12
XFILLER_9_35 VGND VPWR VPWR VGND sky130_ef_sc_hd__decap_12
XFILLER_9_57 VGND VPWR VPWR VGND sky130_ef_sc_hd__decap_12
Xclkgen.delay_100ns_2.genblk1\[17\].delay_unit clkgen.delay_100ns_2.genblk1\[17\].delay_unit/in
+ clkgen.delay_100ns_2.genblk1\[18\].delay_unit/in VPWR VGND VPWR VGND sky130_mm_sc_hd_dly5ns
XFILLER_46_141 VGND VPWR VPWR VGND sky130_ef_sc_hd__decap_12
XFILLER_29_108 VGND VGND VPWR VPWR sky130_fd_sc_hd__decap_4
XFILLER_20_45 VGND VGND VPWR VPWR sky130_fd_sc_hd__decap_3
XFILLER_20_23 VGND VGND VPWR VPWR sky130_fd_sc_hd__decap_4
XFILLER_43_111 VGND VGND VPWR VPWR sky130_fd_sc_hd__fill_1
XFILLER_29_54 VGND VGND VPWR VPWR sky130_fd_sc_hd__fill_2
XFILLER_29_21 VGND VGND VPWR VPWR sky130_fd_sc_hd__fill_1
XFILLER_28_141 VGND VPWR VPWR VGND sky130_ef_sc_hd__decap_12
XFILLER_28_130 VGND VGND VPWR VPWR sky130_fd_sc_hd__decap_8
XFILLER_34_133 VGND VGND VPWR VPWR sky130_fd_sc_hd__decap_6
Xclkgen.delay_100ns_3.genblk1\[7\].delay_unit clkgen.delay_100ns_3.genblk1\[7\].delay_unit/in
+ clkgen.delay_100ns_3.genblk1\[8\].delay_unit/in VPWR VGND VPWR VGND sky130_mm_sc_hd_dly5ns
XFILLER_31_77 VGND VPWR VPWR VGND sky130_ef_sc_hd__decap_12
XFILLER_31_55 VGND VGND VPWR VPWR sky130_fd_sc_hd__fill_1
XFILLER_25_133 VGND VGND VPWR VPWR sky130_fd_sc_hd__decap_8
XFILLER_16_133 VGND VGND VPWR VPWR sky130_fd_sc_hd__decap_6
XFILLER_15_23 VGND VGND VPWR VPWR sky130_fd_sc_hd__decap_4
XFILLER_15_89 VGND VPWR VPWR VGND sky130_ef_sc_hd__decap_12
XFILLER_31_169 VGND VGND VPWR VPWR sky130_fd_sc_hd__decap_8
XFILLER_31_125 VGND VPWR VPWR VGND sky130_ef_sc_hd__decap_12
XTAP_169 VGND VPWR sky130_fd_sc_hd__tapvpwrvgnd_1
XTAP_158 VGND VPWR sky130_fd_sc_hd__tapvpwrvgnd_1
XTAP_147 VGND VPWR sky130_fd_sc_hd__tapvpwrvgnd_1
XTAP_103 VGND VPWR sky130_fd_sc_hd__tapvpwrvgnd_1
XTAP_114 VGND VPWR sky130_fd_sc_hd__tapvpwrvgnd_1
XTAP_125 VGND VPWR sky130_fd_sc_hd__tapvpwrvgnd_1
XTAP_136 VGND VPWR sky130_fd_sc_hd__tapvpwrvgnd_1
XFILLER_42_65 VGND VPWR VPWR VGND sky130_ef_sc_hd__decap_12
XFILLER_13_125 VGND VPWR VPWR VGND sky130_ef_sc_hd__decap_12
XFILLER_13_169 VGND VGND VPWR VPWR sky130_fd_sc_hd__decap_8
XFILLER_3_15 VGND VPWR VPWR VGND sky130_ef_sc_hd__decap_12
XFILLER_10_139 VGND VGND VPWR VPWR sky130_fd_sc_hd__fill_1
XFILLER_0_27 VGND VGND VPWR VPWR sky130_fd_sc_hd__fill_1
XFILLER_29_3 VGND VPWR VPWR VGND sky130_ef_sc_hd__decap_12
XFILLER_9_47 VGND VGND VPWR VPWR sky130_fd_sc_hd__decap_8
XFILLER_9_69 VGND VPWR VPWR VGND sky130_ef_sc_hd__decap_12
XFILLER_18_23 VGND VGND VPWR VPWR sky130_fd_sc_hd__decap_4
XFILLER_46_153 VGND VPWR VPWR VGND sky130_ef_sc_hd__decap_12
XFILLER_38_109 VGND VPWR VPWR VGND sky130_ef_sc_hd__decap_12
XFILLER_1_81 VGND VPWR VPWR VGND sky130_ef_sc_hd__decap_12
XFILLER_43_167 VGND VGND VPWR VPWR sky130_fd_sc_hd__fill_1
XFILLER_28_153 VGND VPWR VPWR VGND sky130_ef_sc_hd__decap_12
XFILLER_20_68 VGND VPWR VPWR VGND sky130_ef_sc_hd__decap_12
XFILLER_6_15 VGND VPWR VPWR VGND sky130_ef_sc_hd__decap_12
XFILLER_31_89 VGND VPWR VPWR VGND sky130_ef_sc_hd__decap_12
XFILLER_31_137 VGND VGND VPWR VPWR sky130_fd_sc_hd__decap_6
XTAP_159 VGND VPWR sky130_fd_sc_hd__tapvpwrvgnd_1
XTAP_148 VGND VPWR sky130_fd_sc_hd__tapvpwrvgnd_1
XTAP_104 VGND VPWR sky130_fd_sc_hd__tapvpwrvgnd_1
XTAP_115 VGND VPWR sky130_fd_sc_hd__tapvpwrvgnd_1
XTAP_126 VGND VPWR sky130_fd_sc_hd__tapvpwrvgnd_1
XTAP_137 VGND VPWR sky130_fd_sc_hd__tapvpwrvgnd_1
XFILLER_26_56 VGND VGND VPWR VPWR sky130_fd_sc_hd__decap_4
XFILLER_26_23 VGND VGND VPWR VPWR sky130_fd_sc_hd__decap_4
Xedgedetect.delay_400ns.genblk1\[14\].delay_unit edgedetect.delay_400ns.genblk1\[14\].delay_unit/in
+ edgedetect.delay_400ns.genblk1\[15\].delay_unit/in VPWR VGND VPWR VGND sky130_mm_sc_hd_dly5ns
XFILLER_42_77 VGND VGND VPWR VPWR sky130_fd_sc_hd__decap_6
XFILLER_3_27 VGND VPWR VPWR VGND sky130_ef_sc_hd__decap_12
XFILLER_13_137 VGND VPWR VPWR VGND sky130_ef_sc_hd__decap_12
Xclkgen.delay_100ns_2.genblk1\[1\].delay_unit clk_dig clkgen.delay_100ns_2.genblk1\[2\].delay_unit/in
+ VPWR VGND VPWR VGND sky130_mm_sc_hd_dly5ns
XFILLER_8_141 VGND VPWR VPWR VGND sky130_ef_sc_hd__decap_12
XFILLER_37_55 VGND VGND VPWR VPWR sky130_fd_sc_hd__fill_1
XFILLER_5_111 VGND VGND VPWR VPWR sky130_fd_sc_hd__fill_1
XFILLER_46_165 VGND VGND VPWR VPWR sky130_fd_sc_hd__decap_3
XFILLER_34_23 VGND VGND VPWR VPWR sky130_fd_sc_hd__decap_4
XFILLER_41_3 VGND VPWR VPWR VGND sky130_ef_sc_hd__decap_12
Xedgedetect.delay_400ns.genblk1\[19\].delay_unit edgedetect.delay_400ns.genblk1\[19\].delay_unit/in
+ edgedetect.delay_400ns.genblk1\[20\].delay_unit/in VPWR VGND VPWR VGND sky130_mm_sc_hd_dly5ns
XFILLER_1_93 VGND VPWR VPWR VGND sky130_ef_sc_hd__decap_12
XFILLER_45_55 VGND VGND VPWR VPWR sky130_fd_sc_hd__fill_1
XFILLER_43_113 VGND VPWR VPWR VGND sky130_ef_sc_hd__decap_12
Xedgedetect.delay_400ns.genblk1\[21\].delay_unit edgedetect.delay_400ns.genblk1\[21\].delay_unit/in
+ edgedetect.delay_400ns.genblk1\[22\].delay_unit/in VPWR VGND VPWR VGND sky130_mm_sc_hd_dly5ns
XFILLER_28_165 VGND VPWR VPWR VGND sky130_ef_sc_hd__decap_12
Xclkgen.delay_100ns_2.genblk1\[6\].delay_unit clkgen.delay_100ns_2.genblk1\[6\].delay_unit/in
+ clkgen.delay_100ns_2.genblk1\[7\].delay_unit/in VPWR VGND VPWR VGND sky130_mm_sc_hd_dly5ns
XFILLER_6_27 VGND VGND VPWR VPWR sky130_fd_sc_hd__fill_1
XFILLER_15_47 VGND VGND VPWR VPWR sky130_fd_sc_hd__decap_8
XTAP_149 VGND VPWR sky130_fd_sc_hd__tapvpwrvgnd_1
XTAP_105 VGND VPWR sky130_fd_sc_hd__tapvpwrvgnd_1
XTAP_116 VGND VPWR sky130_fd_sc_hd__tapvpwrvgnd_1
XTAP_127 VGND VPWR sky130_fd_sc_hd__tapvpwrvgnd_1
XTAP_138 VGND VPWR sky130_fd_sc_hd__tapvpwrvgnd_1
XFILLER_7_81 VGND VPWR VPWR VGND sky130_ef_sc_hd__decap_12
XFILLER_26_35 VGND VGND VPWR VPWR sky130_fd_sc_hd__fill_1
XFILLER_3_39 VGND VPWR VPWR VGND sky130_ef_sc_hd__decap_12
XFILLER_13_105 VGND VGND VPWR VPWR sky130_fd_sc_hd__decap_6
XFILLER_13_149 VGND VPWR VPWR VGND sky130_ef_sc_hd__decap_12
XFILLER_8_153 VGND VPWR VPWR VGND sky130_ef_sc_hd__decap_12
XFILLER_37_23 VGND VPWR VPWR VGND sky130_ef_sc_hd__decap_12
Xclkgen.delay_100ns_1.genblk1\[11\].delay_unit clkgen.delay_100ns_1.genblk1\[11\].delay_unit/in
+ clkgen.delay_100ns_1.genblk1\[12\].delay_unit/in VPWR VGND VPWR VGND sky130_mm_sc_hd_dly5ns
XFILLER_5_167 VGND VGND VPWR VPWR sky130_fd_sc_hd__fill_1
Xedgedetect.delay_400ns.genblk1\[26\].delay_unit edgedetect.delay_400ns.genblk1\[26\].delay_unit/in
+ edgedetect.delay_400ns.genblk1\[27\].delay_unit/in VPWR VGND VPWR VGND sky130_mm_sc_hd_dly5ns
XFILLER_0_29 VGND VPWR VPWR VGND sky130_ef_sc_hd__decap_12
XFILLER_1_3 VGND VPWR VPWR VGND sky130_ef_sc_hd__decap_12
XFILLER_37_111 VGND VGND VPWR VPWR sky130_fd_sc_hd__fill_1
XFILLER_43_169 VGND VGND VPWR VPWR sky130_fd_sc_hd__decap_8
XFILLER_43_125 VGND VPWR VPWR VGND sky130_ef_sc_hd__decap_12
XFILLER_29_57 VGND VPWR VPWR VGND sky130_ef_sc_hd__decap_12
XFILLER_20_37 VGND VGND VPWR VPWR sky130_fd_sc_hd__decap_8
XFILLER_19_166 VGND VGND VPWR VPWR sky130_fd_sc_hd__fill_2
XFILLER_40_139 VGND VGND VPWR VPWR sky130_fd_sc_hd__fill_1
Xclkgen.delay_100ns_3.genblk1\[14\].delay_unit clkgen.delay_100ns_3.genblk1\[14\].delay_unit/in
+ clkgen.delay_100ns_3.genblk1\[15\].delay_unit/in VPWR VGND VPWR VGND sky130_mm_sc_hd_dly5ns
XFILLER_25_169 VGND VGND VPWR VPWR sky130_fd_sc_hd__decap_8
Xclkgen.delay_100ns_1.genblk1\[16\].delay_unit clkgen.delay_100ns_1.genblk1\[16\].delay_unit/in
+ clkgen.delay_100ns_1.genblk1\[17\].delay_unit/in VPWR VGND VPWR VGND sky130_mm_sc_hd_dly5ns
XFILLER_30_161 VGND VPWR VPWR VGND sky130_ef_sc_hd__decap_12
XTAP_106 VGND VPWR sky130_fd_sc_hd__tapvpwrvgnd_1
XPHY_0 VGND VGND VPWR VPWR sky130_fd_sc_hd__decap_3
XFILLER_7_93 VGND VPWR VPWR VGND sky130_ef_sc_hd__decap_12
XTAP_117 VGND VPWR sky130_fd_sc_hd__tapvpwrvgnd_1
XTAP_128 VGND VPWR sky130_fd_sc_hd__tapvpwrvgnd_1
XTAP_139 VGND VPWR sky130_fd_sc_hd__tapvpwrvgnd_1
Xedgedetect.delay_400ns.genblk1\[33\].delay_unit edgedetect.delay_400ns.genblk1\[33\].delay_unit/in
+ edgedetect.delay_400ns.genblk1\[34\].delay_unit/in VPWR VGND VPWR VGND sky130_mm_sc_hd_dly5ns
XFILLER_8_121 VGND VPWR VPWR VGND sky130_ef_sc_hd__decap_12
XFILLER_8_165 VGND VPWR VPWR VGND sky130_ef_sc_hd__decap_12
XFILLER_37_57 VGND VPWR VPWR VGND sky130_ef_sc_hd__decap_12
XFILLER_37_35 VGND VPWR VPWR VGND sky130_ef_sc_hd__decap_12
XFILLER_10_109 VGND VPWR VPWR VGND sky130_ef_sc_hd__decap_12
XFILLER_12_27 VGND VGND VPWR VPWR sky130_fd_sc_hd__fill_1
XFILLER_12_49 VGND VPWR VPWR VGND sky130_ef_sc_hd__decap_12
XFILLER_5_113 VGND VPWR VPWR VGND sky130_ef_sc_hd__decap_12
XFILLER_4_83 VGND VGND VPWR VPWR sky130_fd_sc_hd__fill_1
XFILLER_13_81 VGND VPWR VPWR VGND sky130_ef_sc_hd__decap_12
Xclkgen.delay_100ns_3.genblk1\[19\].delay_unit clkgen.delay_100ns_3.genblk1\[19\].delay_unit/in
+ clkgen.delay_100ns_3.genblk1\[20\].delay_unit/in VPWR VGND VPWR VGND sky130_mm_sc_hd_dly5ns
Xedgedetect.delay_400ns.genblk1\[2\].delay_unit edgedetect.delay_400ns.genblk1\[2\].delay_unit/in
+ edgedetect.delay_400ns.genblk1\[3\].delay_unit/in VPWR VGND VPWR VGND sky130_mm_sc_hd_dly5ns
XFILLER_37_167 VGND VGND VPWR VPWR sky130_fd_sc_hd__fill_1
XFILLER_29_69 VGND VGND VPWR VPWR sky130_fd_sc_hd__decap_6
XFILLER_20_27 VGND VGND VPWR VPWR sky130_fd_sc_hd__fill_1
XFILLER_1_51 VGND VGND VPWR VPWR sky130_fd_sc_hd__decap_4
Xedgedetect.delay_400ns.genblk1\[38\].delay_unit edgedetect.delay_400ns.genblk1\[38\].delay_unit/in
+ edgedetect.delay_400ns.genblk1\[39\].delay_unit/in VPWR VGND VPWR VGND sky130_mm_sc_hd_dly5ns
XFILLER_45_57 VGND VPWR VPWR VGND sky130_ef_sc_hd__decap_12
XFILLER_43_137 VGND VPWR VPWR VGND sky130_ef_sc_hd__decap_12
Xclkgen.delay_100ns_1.genblk1\[5\].delay_unit clkgen.delay_100ns_1.genblk1\[5\].delay_unit/in
+ clkgen.delay_100ns_1.genblk1\[6\].delay_unit/in VPWR VGND VPWR VGND sky130_mm_sc_hd_dly5ns
Xedgedetect.delay_400ns.genblk1\[40\].delay_unit edgedetect.delay_400ns.genblk1\[40\].delay_unit/in
+ _2_/A_N VPWR VGND VPWR VGND sky130_mm_sc_hd_dly5ns
XFILLER_19_101 VGND VGND VPWR VPWR sky130_fd_sc_hd__decap_8
XFILLER_6_29 VGND VPWR VPWR VGND sky130_ef_sc_hd__decap_12
XFILLER_30_173 VGND VGND VPWR VPWR sky130_fd_sc_hd__decap_4
XTAP_107 VGND VPWR sky130_fd_sc_hd__tapvpwrvgnd_1
XPHY_1 VGND VGND VPWR VPWR sky130_fd_sc_hd__decap_3
XTAP_118 VGND VPWR sky130_fd_sc_hd__tapvpwrvgnd_1
XTAP_129 VGND VPWR sky130_fd_sc_hd__tapvpwrvgnd_1
XFILLER_8_133 VGND VGND VPWR VPWR sky130_fd_sc_hd__decap_6
XFILLER_16_81 VGND VGND VPWR VPWR sky130_fd_sc_hd__decap_3
XFILLER_37_69 VGND VPWR VPWR VGND sky130_ef_sc_hd__decap_12
XFILLER_37_47 VGND VGND VPWR VPWR sky130_fd_sc_hd__decap_8
XFILLER_5_125 VGND VPWR VPWR VGND sky130_ef_sc_hd__decap_12
XFILLER_5_169 VGND VGND VPWR VPWR sky130_fd_sc_hd__decap_8
Xedgedetect.delay_400ns.genblk1\[7\].delay_unit edgedetect.delay_400ns.genblk1\[7\].delay_unit/in
+ edgedetect.delay_400ns.genblk1\[8\].delay_unit/in VPWR VGND VPWR VGND sky130_mm_sc_hd_dly5ns
XFILLER_2_139 VGND VGND VPWR VPWR sky130_fd_sc_hd__fill_1
XFILLER_1_161 VGND VGND VPWR VPWR sky130_fd_sc_hd__decap_6
XFILLER_13_93 VGND VPWR VPWR VGND sky130_ef_sc_hd__decap_12
XFILLER_18_49 VGND VGND VPWR VPWR sky130_fd_sc_hd__decap_4
XFILLER_18_27 VGND VGND VPWR VPWR sky130_fd_sc_hd__fill_1
XFILLER_46_113 VGND VPWR VPWR VGND sky130_ef_sc_hd__decap_12
XFILLER_24_81 VGND VGND VPWR VPWR sky130_fd_sc_hd__decap_3
XFILLER_37_113 VGND VPWR VPWR VGND sky130_ef_sc_hd__decap_12
XFILLER_29_15 VGND VGND VPWR VPWR sky130_fd_sc_hd__decap_6
XFILLER_45_69 VGND VPWR VPWR VGND sky130_ef_sc_hd__decap_12
XFILLER_43_149 VGND VPWR VPWR VGND sky130_ef_sc_hd__decap_12
XFILLER_43_105 VGND VGND VPWR VPWR sky130_fd_sc_hd__decap_6
XFILLER_19_113 VGND VPWR VPWR VGND sky130_ef_sc_hd__decap_12
XFILLER_10_83 VGND VGND VPWR VPWR sky130_fd_sc_hd__fill_1
XFILLER_19_146 VGND VPWR VPWR VGND sky130_ef_sc_hd__decap_12
XPHY_2 VGND VGND VPWR VPWR sky130_fd_sc_hd__decap_3
XTAP_108 VGND VPWR sky130_fd_sc_hd__tapvpwrvgnd_1
XTAP_119 VGND VPWR sky130_fd_sc_hd__tapvpwrvgnd_1
XFILLER_42_15 VGND VPWR VPWR VGND sky130_ef_sc_hd__decap_12
XFILLER_26_27 VGND VGND VPWR VPWR sky130_fd_sc_hd__fill_1
XFILLER_7_51 VGND VGND VPWR VPWR sky130_fd_sc_hd__decap_4
XFILLER_32_81 VGND VGND VPWR VPWR sky130_fd_sc_hd__decap_3
XFILLER_12_141 VGND VPWR VPWR VGND sky130_ef_sc_hd__decap_12
XFILLER_5_137 VGND VPWR VPWR VGND sky130_ef_sc_hd__decap_12
XFILLER_4_41 VGND VPWR VPWR VGND sky130_ef_sc_hd__decap_12
XFILLER_4_85 VGND VPWR VPWR VGND sky130_ef_sc_hd__decap_12
XFILLER_34_49 VGND VPWR VPWR VGND sky130_ef_sc_hd__decap_12
XFILLER_34_27 VGND VGND VPWR VPWR sky130_fd_sc_hd__fill_1
XFILLER_46_169 VGND VGND VPWR VPWR sky130_fd_sc_hd__decap_8
XFILLER_46_125 VGND VPWR VPWR VGND sky130_ef_sc_hd__decap_12
XFILLER_37_169 VGND VGND VPWR VPWR sky130_fd_sc_hd__decap_8
XFILLER_37_125 VGND VPWR VPWR VGND sky130_ef_sc_hd__decap_12
XFILLER_45_15 VGND VPWR VPWR VGND sky130_ef_sc_hd__decap_12
XFILLER_35_81 VGND VPWR VPWR VGND sky130_ef_sc_hd__decap_12
XFILLER_34_139 VGND VGND VPWR VPWR sky130_fd_sc_hd__fill_1
XFILLER_19_169 VGND VGND VPWR VPWR sky130_fd_sc_hd__decap_8
XFILLER_19_158 VGND VGND VPWR VPWR sky130_fd_sc_hd__decap_8
XFILLER_19_125 VGND VGND VPWR VPWR sky130_fd_sc_hd__fill_1
XFILLER_40_109 VGND VPWR VPWR VGND sky130_ef_sc_hd__decap_12
XFILLER_31_109 VGND VGND VPWR VPWR sky130_fd_sc_hd__decap_3
XFILLER_24_161 VGND VPWR VPWR VGND sky130_ef_sc_hd__decap_12
XFILLER_21_50 VGND VGND VPWR VPWR sky130_fd_sc_hd__decap_6
XFILLER_16_139 VGND VGND VPWR VPWR sky130_fd_sc_hd__fill_1
XTAP_109 VGND VPWR sky130_fd_sc_hd__tapvpwrvgnd_1
XPHY_3 VGND VGND VPWR VPWR sky130_fd_sc_hd__decap_3
XFILLER_15_161 VGND VGND VPWR VPWR sky130_fd_sc_hd__decap_6
XFILLER_42_27 VGND VGND VPWR VPWR sky130_fd_sc_hd__fill_1
XFILLER_12_153 VGND VPWR VPWR VGND sky130_ef_sc_hd__decap_12
Xclkgen.delay_100ns_2.genblk1\[13\].delay_unit clkgen.delay_100ns_2.genblk1\[13\].delay_unit/in
+ clkgen.delay_100ns_2.genblk1\[14\].delay_unit/in VPWR VGND VPWR VGND sky130_mm_sc_hd_dly5ns
XFILLER_5_105 VGND VGND VPWR VPWR sky130_fd_sc_hd__decap_6
XFILLER_5_149 VGND VPWR VPWR VGND sky130_ef_sc_hd__decap_12
XFILLER_43_81 VGND VPWR VPWR VGND sky130_ef_sc_hd__decap_12
XFILLER_4_53 VGND VPWR VPWR VGND sky130_ef_sc_hd__decap_12
XFILLER_4_97 VGND VPWR VPWR VGND sky130_ef_sc_hd__decap_12
Xclkgen.delay_100ns_3.genblk1\[3\].delay_unit clkgen.delay_100ns_3.genblk1\[3\].delay_unit/in
+ clkgen.delay_100ns_3.genblk1\[4\].delay_unit/in VPWR VGND VPWR VGND sky130_mm_sc_hd_dly5ns
XFILLER_46_137 VGND VGND VPWR VPWR sky130_fd_sc_hd__decap_3
XFILLER_37_137 VGND VPWR VPWR VGND sky130_ef_sc_hd__decap_12
XFILLER_45_27 VGND VPWR VPWR VGND sky130_ef_sc_hd__decap_12
XFILLER_35_93 VGND VPWR VPWR VGND sky130_ef_sc_hd__decap_12
XFILLER_10_41 VGND VPWR VPWR VGND sky130_ef_sc_hd__decap_12
XFILLER_10_85 VGND VPWR VPWR VGND sky130_ef_sc_hd__decap_12
XFILLER_25_3 VGND VGND VPWR VPWR sky130_fd_sc_hd__fill_1
Xclkgen.delay_100ns_2.genblk1\[18\].delay_unit clkgen.delay_100ns_2.genblk1\[18\].delay_unit/in
+ clkgen.delay_100ns_2.genblk1\[19\].delay_unit/in VPWR VGND VPWR VGND sky130_mm_sc_hd_dly5ns
XFILLER_24_173 VGND VGND VPWR VPWR sky130_fd_sc_hd__decap_4
XFILLER_21_84 VGND VGND VPWR VPWR sky130_fd_sc_hd__decap_4
Xclkgen.delay_100ns_2.genblk1\[20\].delay_unit clkgen.delay_100ns_2.genblk1\[20\].delay_unit/in
+ _3_/B1_N VPWR VGND VPWR VGND sky130_mm_sc_hd_dly5ns
XFILLER_46_81 VGND VGND VPWR VPWR sky130_fd_sc_hd__decap_3
XPHY_4 VGND VGND VPWR VPWR sky130_fd_sc_hd__decap_3
XFILLER_26_29 VGND VGND VPWR VPWR sky130_fd_sc_hd__decap_6
XFILLER_21_165 VGND VGND VPWR VPWR sky130_fd_sc_hd__decap_3
XFILLER_32_61 VGND VPWR VPWR VGND sky130_ef_sc_hd__decap_12
Xclkgen.delay_100ns_3.genblk1\[8\].delay_unit clkgen.delay_100ns_3.genblk1\[8\].delay_unit/in
+ clkgen.delay_100ns_3.genblk1\[9\].delay_unit/in VPWR VGND VPWR VGND sky130_mm_sc_hd_dly5ns
XFILLER_12_121 VGND VPWR VPWR VGND sky130_ef_sc_hd__decap_12
XFILLER_12_165 VGND VPWR VPWR VGND sky130_ef_sc_hd__decap_12
XFILLER_16_73 VGND VGND VPWR VPWR sky130_fd_sc_hd__decap_8
XFILLER_43_93 VGND VPWR VPWR VGND sky130_ef_sc_hd__decap_12
XFILLER_27_83 VGND VGND VPWR VPWR sky130_fd_sc_hd__decap_4
XFILLER_2_109 VGND VPWR VPWR VGND sky130_ef_sc_hd__decap_12
XFILLER_4_65 VGND VPWR VPWR VGND sky130_ef_sc_hd__decap_12
XFILLER_40_83 VGND VGND VPWR VPWR sky130_fd_sc_hd__fill_1
XFILLER_37_149 VGND VPWR VPWR VGND sky130_ef_sc_hd__decap_12
XFILLER_37_105 VGND VGND VPWR VPWR sky130_fd_sc_hd__decap_6
XFILLER_24_73 VGND VGND VPWR VPWR sky130_fd_sc_hd__decap_8
XFILLER_1_55 VGND VGND VPWR VPWR sky130_fd_sc_hd__fill_1
XFILLER_45_39 VGND VPWR VPWR VGND sky130_ef_sc_hd__decap_12
XFILLER_28_138 VGND VGND VPWR VPWR sky130_fd_sc_hd__fill_2
Xedgedetect.delay_400ns.genblk1\[10\].delay_unit edgedetect.delay_400ns.genblk1\[9\].delay_unit/out
+ edgedetect.delay_400ns.genblk1\[11\].delay_unit/in VPWR VGND VPWR VGND sky130_mm_sc_hd_dly5ns
XFILLER_42_141 VGND VPWR VPWR VGND sky130_ef_sc_hd__decap_12
XFILLER_10_53 VGND VPWR VPWR VGND sky130_ef_sc_hd__decap_12
XFILLER_10_97 VGND VPWR VPWR VGND sky130_ef_sc_hd__decap_12
XFILLER_21_63 VGND VGND VPWR VPWR sky130_fd_sc_hd__fill_1
XPHY_5 VGND VGND VPWR VPWR sky130_fd_sc_hd__decap_3
XFILLER_42_29 VGND VPWR VPWR VGND sky130_ef_sc_hd__decap_12
XFILLER_21_133 VGND VGND VPWR VPWR sky130_fd_sc_hd__decap_4
XFILLER_32_73 VGND VGND VPWR VPWR sky130_fd_sc_hd__decap_8
XFILLER_12_133 VGND VGND VPWR VPWR sky130_fd_sc_hd__decap_6
XFILLER_16_85 VGND VPWR VPWR VGND sky130_ef_sc_hd__decap_12
XFILLER_4_77 VGND VGND VPWR VPWR sky130_fd_sc_hd__decap_6
Xedgedetect.delay_400ns.genblk1\[15\].delay_unit edgedetect.delay_400ns.genblk1\[15\].delay_unit/in
+ edgedetect.delay_400ns.genblk1\[16\].delay_unit/in VPWR VGND VPWR VGND sky130_mm_sc_hd_dly5ns
XFILLER_38_83 VGND VGND VPWR VPWR sky130_fd_sc_hd__fill_1
Xclkgen.delay_100ns_2.genblk1\[2\].delay_unit clkgen.delay_100ns_2.genblk1\[2\].delay_unit/in
+ clkgen.delay_100ns_2.genblk1\[3\].delay_unit/in VPWR VGND VPWR VGND sky130_mm_sc_hd_dly5ns
XFILLER_24_85 VGND VPWR VPWR VGND sky130_ef_sc_hd__decap_12
XFILLER_45_161 VGND VGND VPWR VPWR sky130_fd_sc_hd__decap_6
XFILLER_34_109 VGND VPWR VPWR VGND sky130_ef_sc_hd__decap_12
XFILLER_27_161 VGND VGND VPWR VPWR sky130_fd_sc_hd__decap_6
XFILLER_10_65 VGND VPWR VPWR VGND sky130_ef_sc_hd__decap_12
XFILLER_42_153 VGND VPWR VPWR VGND sky130_ef_sc_hd__decap_12
XFILLER_33_164 VGND VGND VPWR VPWR sky130_fd_sc_hd__decap_4
XFILLER_24_120 VGND VPWR VPWR VGND sky130_ef_sc_hd__decap_12
XFILLER_16_109 VGND VPWR VPWR VGND sky130_ef_sc_hd__decap_12
XPHY_6 VGND VGND VPWR VPWR sky130_fd_sc_hd__decap_3
XFILLER_7_55 VGND VGND VPWR VPWR sky130_fd_sc_hd__fill_1
Xedgedetect.delay_400ns.genblk1\[22\].delay_unit edgedetect.delay_400ns.genblk1\[22\].delay_unit/in
+ edgedetect.delay_400ns.genblk1\[23\].delay_unit/in VPWR VGND VPWR VGND sky130_mm_sc_hd_dly5ns
XFILLER_32_85 VGND VPWR VPWR VGND sky130_ef_sc_hd__decap_12
Xclkgen.delay_100ns_2.genblk1\[7\].delay_unit clkgen.delay_100ns_2.genblk1\[7\].delay_unit/in
+ clkgen.delay_100ns_2.genblk1\[8\].delay_unit/in VPWR VGND VPWR VGND sky130_mm_sc_hd_dly5ns
XFILLER_16_97 VGND VPWR VPWR VGND sky130_ef_sc_hd__decap_12
XFILLER_27_52 VGND VGND VPWR VPWR sky130_fd_sc_hd__decap_4
XFILLER_43_51 VGND VGND VPWR VPWR sky130_fd_sc_hd__decap_4
XFILLER_4_141 VGND VPWR VPWR VGND sky130_ef_sc_hd__decap_12
XTAP_240 VGND VPWR sky130_fd_sc_hd__tapvpwrvgnd_1
XFILLER_1_111 VGND VGND VPWR VPWR sky130_fd_sc_hd__fill_1
XFILLER_8_3 VGND VPWR VPWR VGND sky130_ef_sc_hd__decap_12
Xclkgen.delay_100ns_3.genblk1\[10\].delay_unit clkgen.delay_100ns_3.genblk1\[9\].delay_unit/out
+ clkgen.delay_100ns_3.genblk1\[11\].delay_unit/in VPWR VGND VPWR VGND sky130_mm_sc_hd_dly5ns
XFILLER_40_85 VGND VPWR VPWR VGND sky130_ef_sc_hd__decap_12
XFILLER_40_41 VGND VPWR VPWR VGND sky130_ef_sc_hd__decap_12
Xclkgen.delay_100ns_1.genblk1\[12\].delay_unit clkgen.delay_100ns_1.genblk1\[12\].delay_unit/in
+ clkgen.delay_100ns_1.genblk1\[13\].delay_unit/in VPWR VGND VPWR VGND sky130_mm_sc_hd_dly5ns
XFILLER_24_97 VGND VGND VPWR VPWR sky130_fd_sc_hd__decap_3
Xedgedetect.delay_400ns.genblk1\[27\].delay_unit edgedetect.delay_400ns.genblk1\[27\].delay_unit/in
+ edgedetect.delay_400ns.genblk1\[28\].delay_unit/in VPWR VGND VPWR VGND sky130_mm_sc_hd_dly5ns
XFILLER_1_57 VGND VPWR VPWR VGND sky130_ef_sc_hd__decap_12
XFILLER_36_173 VGND VGND VPWR VPWR sky130_fd_sc_hd__decap_4
XFILLER_28_118 VGND VPWR VPWR VGND sky130_ef_sc_hd__decap_12
XFILLER_10_77 VGND VGND VPWR VPWR sky130_fd_sc_hd__decap_6
XFILLER_42_165 VGND VPWR VPWR VGND sky130_ef_sc_hd__decap_12
XFILLER_42_121 VGND VPWR VPWR VGND sky130_ef_sc_hd__decap_12
XFILLER_33_143 VGND VGND VPWR VPWR sky130_fd_sc_hd__fill_1
XFILLER_24_132 VGND VGND VPWR VPWR sky130_fd_sc_hd__decap_8
XPHY_7 VGND VGND VPWR VPWR sky130_fd_sc_hd__decap_3
XFILLER_23_3 VGND VGND VPWR VPWR sky130_fd_sc_hd__decap_6
XFILLER_21_157 VGND VGND VPWR VPWR sky130_fd_sc_hd__decap_8
XFILLER_32_97 VGND VPWR VPWR VGND sky130_ef_sc_hd__decap_12
XFILLER_8_139 VGND VGND VPWR VPWR sky130_fd_sc_hd__fill_1
Xclkgen.delay_100ns_3.genblk1\[15\].delay_unit clkgen.delay_100ns_3.genblk1\[15\].delay_unit/in
+ clkgen.delay_100ns_3.genblk1\[16\].delay_unit/in VPWR VGND VPWR VGND sky130_mm_sc_hd_dly5ns
XFILLER_7_161 VGND VGND VPWR VPWR sky130_fd_sc_hd__decap_6
Xclkgen.delay_100ns_1.genblk1\[17\].delay_unit clkgen.delay_100ns_1.genblk1\[17\].delay_unit/in
+ clkgen.delay_100ns_1.genblk1\[18\].delay_unit/in VPWR VGND VPWR VGND sky130_mm_sc_hd_dly5ns
XFILLER_27_31 VGND VGND VPWR VPWR sky130_fd_sc_hd__fill_1
XFILLER_4_153 VGND VPWR VPWR VGND sky130_ef_sc_hd__decap_12
XTAP_230 VGND VPWR sky130_fd_sc_hd__tapvpwrvgnd_1
Xedgedetect.delay_400ns.genblk1\[34\].delay_unit edgedetect.delay_400ns.genblk1\[34\].delay_unit/in
+ edgedetect.delay_400ns.genblk1\[35\].delay_unit/in VPWR VGND VPWR VGND sky130_mm_sc_hd_dly5ns
XFILLER_38_85 VGND VPWR VPWR VGND sky130_ef_sc_hd__decap_12
XFILLER_38_41 VGND VPWR VPWR VGND sky130_ef_sc_hd__decap_12
XFILLER_1_167 VGND VGND VPWR VPWR sky130_fd_sc_hd__fill_1
XFILLER_13_55 VGND VGND VPWR VPWR sky130_fd_sc_hd__fill_1
Xclkgen.delay_100ns_1.genblk1\[1\].delay_unit comp_trig clkgen.delay_100ns_1.genblk1\[2\].delay_unit/in
+ VPWR VGND VPWR VGND sky130_mm_sc_hd_dly5ns
XFILLER_40_97 VGND VPWR VPWR VGND sky130_ef_sc_hd__decap_12
XFILLER_40_53 VGND VPWR VPWR VGND sky130_ef_sc_hd__decap_12
XFILLER_1_69 VGND VPWR VPWR VGND sky130_ef_sc_hd__decap_12
XFILLER_36_141 VGND VPWR VPWR VGND sky130_ef_sc_hd__decap_12
XFILLER_10_23 VGND VGND VPWR VPWR sky130_fd_sc_hd__decap_4
XFILLER_42_133 VGND VGND VPWR VPWR sky130_fd_sc_hd__decap_6
XFILLER_33_111 VGND VGND VPWR VPWR sky130_fd_sc_hd__fill_1
XFILLER_18_141 VGND VGND VPWR VPWR sky130_fd_sc_hd__decap_3
XFILLER_46_85 VGND VPWR VPWR VGND sky130_ef_sc_hd__decap_12
XFILLER_46_41 VGND VPWR VPWR VGND sky130_ef_sc_hd__decap_12
Xedgedetect.delay_400ns.genblk1\[39\].delay_unit edgedetect.delay_400ns.genblk1\[39\].delay_unit/in
+ edgedetect.delay_400ns.genblk1\[40\].delay_unit/in VPWR VGND VPWR VGND sky130_mm_sc_hd_dly5ns
XFILLER_30_136 VGND VGND VPWR VPWR sky130_fd_sc_hd__decap_4
Xedgedetect.delay_400ns.genblk1\[3\].delay_unit edgedetect.delay_400ns.genblk1\[3\].delay_unit/in
+ edgedetect.delay_400ns.genblk1\[4\].delay_unit/in VPWR VGND VPWR VGND sky130_mm_sc_hd_dly5ns
XPHY_8 VGND VGND VPWR VPWR sky130_fd_sc_hd__decap_3
XFILLER_7_57 VGND VPWR VPWR VGND sky130_ef_sc_hd__decap_12
XFILLER_21_169 VGND VGND VPWR VPWR sky130_fd_sc_hd__decap_8
Xclkgen.delay_100ns_1.genblk1\[6\].delay_unit clkgen.delay_100ns_1.genblk1\[6\].delay_unit/in
+ clkgen.delay_100ns_1.genblk1\[7\].delay_unit/in VPWR VGND VPWR VGND sky130_mm_sc_hd_dly5ns
XFILLER_4_121 VGND VPWR VPWR VGND sky130_ef_sc_hd__decap_12
XFILLER_4_165 VGND VPWR VPWR VGND sky130_ef_sc_hd__decap_12
XTAP_231 VGND VPWR sky130_fd_sc_hd__tapvpwrvgnd_1
XTAP_220 VGND VPWR sky130_fd_sc_hd__tapvpwrvgnd_1
XFILLER_38_97 VGND VPWR VPWR VGND sky130_ef_sc_hd__decap_12
XFILLER_38_53 VGND VPWR VPWR VGND sky130_ef_sc_hd__decap_12
XFILLER_1_113 VGND VPWR VPWR VGND sky130_ef_sc_hd__decap_12