* NGSPICE file created from adc_clkgen_with_edgedetect.ext - technology: sky130A

* Black-box entry subcircuit for sky130_fd_sc_hd__fill_1 abstract view
.subckt sky130_fd_sc_hd__fill_1 VGND VNB VPB VPWR
.ends

* Black-box entry subcircuit for sky130_mm_sc_hd_dly5ns abstract view
.subckt sky130_mm_sc_hd_dly5ns in out VPWR VGND VPB VNB
.ends

* Black-box entry subcircuit for sky130_fd_sc_hd__decap_6 abstract view
.subckt sky130_fd_sc_hd__decap_6 VGND VNB VPB VPWR
.ends

* Black-box entry subcircuit for sky130_fd_sc_hd__fill_2 abstract view
.subckt sky130_fd_sc_hd__fill_2 VGND VNB VPB VPWR
.ends

* Black-box entry subcircuit for sky130_fd_sc_hd__decap_8 abstract view
.subckt sky130_fd_sc_hd__decap_8 VGND VNB VPB VPWR
.ends

* Black-box entry subcircuit for sky130_fd_sc_hd__decap_4 abstract view
.subckt sky130_fd_sc_hd__decap_4 VGND VNB VPB VPWR
.ends

* Black-box entry subcircuit for sky130_fd_sc_hd__decap_3 abstract view
.subckt sky130_fd_sc_hd__decap_3 VGND VNB VPB VPWR
.ends

* Black-box entry subcircuit for sky130_ef_sc_hd__decap_12 abstract view
.subckt sky130_ef_sc_hd__decap_12 VGND VPWR VPB VNB
.ends

* Black-box entry subcircuit for sky130_fd_sc_hd__tapvpwrvgnd_1 abstract view
.subckt sky130_fd_sc_hd__tapvpwrvgnd_1 VGND VPWR
.ends

* Black-box entry subcircuit for sky130_fd_sc_hd__o21ba_2 abstract view
.subckt sky130_fd_sc_hd__o21ba_2 A1 A2 B1_N VGND VNB VPB VPWR X
.ends

* Black-box entry subcircuit for sky130_fd_sc_hd__and2b_2 abstract view
.subckt sky130_fd_sc_hd__and2b_2 A_N B VGND VNB VPB VPWR X
.ends

* Black-box entry subcircuit for sky130_fd_sc_hd__inv_2 abstract view
.subckt sky130_fd_sc_hd__inv_2 A VGND VNB VPB VPWR Y
.ends

.subckt adc_clkgen_with_edgedetect VGND VPWR clk_comp clk_dig comp_trig ena_in start_conv
XFILLER_7_7 VGND VGND VPWR VPWR sky130_fd_sc_hd__fill_1
Xclkgen.delay_100ns_1.genblk1\[9\].delay_unit clkgen.delay_100ns_1.genblk1\[9\].delay_unit/in
+ clkgen.delay_100ns_1.genblk1\[9\].delay_unit/out VPWR VGND VPWR VGND sky130_mm_sc_hd_dly5ns
XFILLER_13_111 VGND VGND VPWR VPWR sky130_fd_sc_hd__fill_1
XFILLER_13_133 VGND VGND VPWR VPWR sky130_fd_sc_hd__decap_6
XFILLER_13_177 VGND VGND VPWR VPWR sky130_fd_sc_hd__fill_2
XFILLER_6_129 VGND VGND VPWR VPWR sky130_fd_sc_hd__decap_8
XFILLER_10_136 VGND VGND VPWR VPWR sky130_fd_sc_hd__decap_4
XFILLER_0_57 VGND VGND VPWR VPWR sky130_fd_sc_hd__decap_3
XFILLER_0_24 VGND VGND VPWR VPWR sky130_fd_sc_hd__decap_4
XFILLER_9_11 VGND VGND VPWR VPWR sky130_fd_sc_hd__decap_4
XFILLER_9_55 VGND VGND VPWR VPWR sky130_fd_sc_hd__fill_1
XFILLER_18_97 VGND VPWR VPWR VGND sky130_ef_sc_hd__decap_12
XFILLER_18_75 VGND VGND VPWR VPWR sky130_fd_sc_hd__decap_8
XFILLER_19_161 VGND VGND VPWR VPWR sky130_fd_sc_hd__decap_6
XFILLER_6_56 VGND VGND VPWR VPWR sky130_fd_sc_hd__decap_4
XFILLER_13_3 VGND VGND VPWR VPWR sky130_fd_sc_hd__decap_4
XTAP_101 VGND VPWR sky130_fd_sc_hd__tapvpwrvgnd_1
XFILLER_3_57 VGND VGND VPWR VPWR sky130_fd_sc_hd__decap_6
XFILLER_3_46 VGND VGND VPWR VPWR sky130_fd_sc_hd__decap_8
XFILLER_13_167 VGND VGND VPWR VPWR sky130_fd_sc_hd__fill_1
XFILLER_15_7 VGND VGND VPWR VPWR sky130_fd_sc_hd__fill_1
XFILLER_20_55 VGND VGND VPWR VPWR sky130_fd_sc_hd__fill_1
XFILLER_6_24 VGND VGND VPWR VPWR sky130_fd_sc_hd__decap_4
XFILLER_6_35 VGND VGND VPWR VPWR sky130_fd_sc_hd__fill_1
Xclkgen.delay_100ns_2.genblk1\[12\].delay_unit clkgen.delay_100ns_2.genblk1\[12\].delay_unit/in
+ clkgen.delay_100ns_2.genblk1\[13\].delay_unit/in VPWR VGND VPWR VGND sky130_mm_sc_hd_dly5ns
XTAP_102 VGND VPWR sky130_fd_sc_hd__tapvpwrvgnd_1
XFILLER_8_161 VGND VPWR VPWR VGND sky130_ef_sc_hd__decap_12
XFILLER_10_105 VGND VGND VPWR VPWR sky130_fd_sc_hd__decap_8
Xclkgen.delay_100ns_3.genblk1\[2\].delay_unit clkgen.delay_100ns_3.genblk1\[2\].delay_unit/in
+ clkgen.delay_100ns_3.genblk1\[3\].delay_unit/in VPWR VGND VPWR VGND sky130_mm_sc_hd_dly5ns
XFILLER_5_142 VGND VGND VPWR VPWR sky130_fd_sc_hd__fill_2
XFILLER_5_164 VGND VGND VPWR VPWR sky130_fd_sc_hd__decap_4
XFILLER_3_3 VGND VGND VPWR VPWR sky130_fd_sc_hd__decap_8
XFILLER_2_123 VGND VPWR VPWR VGND sky130_ef_sc_hd__decap_12
XFILLER_9_35 VGND VPWR VPWR VGND sky130_ef_sc_hd__decap_12
XFILLER_9_57 VGND VPWR VPWR VGND sky130_ef_sc_hd__decap_12
Xclkgen.delay_100ns_2.genblk1\[17\].delay_unit clkgen.delay_100ns_2.genblk1\[17\].delay_unit/in
+ clkgen.delay_100ns_2.genblk1\[18\].delay_unit/in VPWR VGND VPWR VGND sky130_mm_sc_hd_dly5ns
Xclkgen.delay_100ns_3.genblk1\[7\].delay_unit clkgen.delay_100ns_3.genblk1\[7\].delay_unit/in
+ clkgen.delay_100ns_3.genblk1\[8\].delay_unit/in VPWR VGND VPWR VGND sky130_mm_sc_hd_dly5ns
XTAP_103 VGND VPWR sky130_fd_sc_hd__tapvpwrvgnd_1
XFILLER_13_169 VGND VGND VPWR VPWR sky130_fd_sc_hd__decap_8
XFILLER_8_173 VGND VGND VPWR VPWR sky130_fd_sc_hd__decap_6
XFILLER_5_7 VGND VGND VPWR VPWR sky130_fd_sc_hd__fill_1
XFILLER_12_24 VGND VGND VPWR VPWR sky130_fd_sc_hd__decap_4
XFILLER_2_135 VGND VGND VPWR VPWR sky130_fd_sc_hd__decap_4
XFILLER_9_47 VGND VGND VPWR VPWR sky130_fd_sc_hd__decap_8
XFILLER_9_69 VGND VGND VPWR VPWR sky130_fd_sc_hd__decap_8
XFILLER_20_24 VGND VGND VPWR VPWR sky130_fd_sc_hd__decap_4
XFILLER_20_57 VGND VPWR VPWR VGND sky130_ef_sc_hd__decap_12
XFILLER_15_57 VGND VGND VPWR VPWR sky130_fd_sc_hd__decap_3
XTAP_104 VGND VPWR sky130_fd_sc_hd__tapvpwrvgnd_1
XFILLER_11_3 VGND VPWR VPWR VGND sky130_ef_sc_hd__decap_12
Xedgedetect.delay_400ns.genblk1\[14\].delay_unit edgedetect.delay_400ns.genblk1\[14\].delay_unit/in
+ edgedetect.delay_400ns.genblk1\[15\].delay_unit/in VPWR VGND VPWR VGND sky130_mm_sc_hd_dly5ns
XFILLER_13_159 VGND VGND VPWR VPWR sky130_fd_sc_hd__decap_8
Xclkgen.delay_100ns_2.genblk1\[1\].delay_unit clk_dig clkgen.delay_100ns_2.genblk1\[2\].delay_unit/in
+ VPWR VGND VPWR VGND sky130_mm_sc_hd_dly5ns
XFILLER_12_58 VGND VGND VPWR VPWR sky130_fd_sc_hd__fill_2
XFILLER_5_177 VGND VGND VPWR VPWR sky130_fd_sc_hd__fill_2
XFILLER_18_24 VGND VGND VPWR VPWR sky130_fd_sc_hd__decap_4
Xedgedetect.delay_400ns.genblk1\[19\].delay_unit edgedetect.delay_400ns.genblk1\[19\].delay_unit/in
+ edgedetect.delay_400ns.genblk1\[20\].delay_unit/in VPWR VGND VPWR VGND sky130_mm_sc_hd_dly5ns
XFILLER_20_69 VGND VPWR VPWR VGND sky130_ef_sc_hd__decap_12
Xedgedetect.delay_400ns.genblk1\[21\].delay_unit edgedetect.delay_400ns.genblk1\[21\].delay_unit/in
+ edgedetect.delay_400ns.genblk1\[22\].delay_unit/in VPWR VGND VPWR VGND sky130_mm_sc_hd_dly5ns
Xclkgen.delay_100ns_2.genblk1\[6\].delay_unit clkgen.delay_100ns_2.genblk1\[6\].delay_unit/in
+ clkgen.delay_100ns_2.genblk1\[7\].delay_unit/in VPWR VGND VPWR VGND sky130_mm_sc_hd_dly5ns
XFILLER_13_7 VGND VGND VPWR VPWR sky130_fd_sc_hd__fill_1
XTAP_105 VGND VPWR sky130_fd_sc_hd__tapvpwrvgnd_1
XFILLER_9_109 VGND VGND VPWR VPWR sky130_fd_sc_hd__decap_3
Xclkgen.delay_100ns_1.genblk1\[11\].delay_unit clkgen.delay_100ns_1.genblk1\[11\].delay_unit/in
+ clkgen.delay_100ns_1.genblk1\[12\].delay_unit/in VPWR VGND VPWR VGND sky130_mm_sc_hd_dly5ns
XFILLER_5_134 VGND VGND VPWR VPWR sky130_fd_sc_hd__decap_8
Xedgedetect.delay_400ns.genblk1\[26\].delay_unit edgedetect.delay_400ns.genblk1\[26\].delay_unit/in
+ edgedetect.delay_400ns.genblk1\[27\].delay_unit/in VPWR VGND VPWR VGND sky130_mm_sc_hd_dly5ns
XFILLER_0_29 VGND VGND VPWR VPWR sky130_fd_sc_hd__decap_3
XFILLER_1_3 VGND VGND VPWR VPWR sky130_fd_sc_hd__decap_4
XFILLER_19_177 VGND VGND VPWR VPWR sky130_fd_sc_hd__fill_2
Xclkgen.delay_100ns_1.genblk1\[16\].delay_unit clkgen.delay_100ns_1.genblk1\[16\].delay_unit/in
+ clkgen.delay_100ns_1.genblk1\[17\].delay_unit/in VPWR VGND VPWR VGND sky130_mm_sc_hd_dly5ns
Xclkgen.delay_100ns_3.genblk1\[14\].delay_unit clkgen.delay_100ns_3.genblk1\[14\].delay_unit/in
+ clkgen.delay_100ns_3.genblk1\[15\].delay_unit/in VPWR VGND VPWR VGND sky130_mm_sc_hd_dly5ns
XTAP_106 VGND VPWR sky130_fd_sc_hd__tapvpwrvgnd_1
XPHY_0 VGND VGND VPWR VPWR sky130_fd_sc_hd__decap_3
Xedgedetect.delay_400ns.genblk1\[33\].delay_unit edgedetect.delay_400ns.genblk1\[33\].delay_unit/in
+ edgedetect.delay_400ns.genblk1\[34\].delay_unit/in VPWR VGND VPWR VGND sky130_mm_sc_hd_dly5ns
XFILLER_16_80 VGND VGND VPWR VPWR sky130_fd_sc_hd__decap_4
XFILLER_8_121 VGND VPWR VPWR VGND sky130_ef_sc_hd__decap_12
XFILLER_12_161 VGND VPWR VPWR VGND sky130_ef_sc_hd__decap_12
XFILLER_5_113 VGND VGND VPWR VPWR sky130_fd_sc_hd__fill_1
XFILLER_4_83 VGND VGND VPWR VPWR sky130_fd_sc_hd__fill_1
Xclkgen.delay_100ns_3.genblk1\[19\].delay_unit clkgen.delay_100ns_3.genblk1\[19\].delay_unit/in
+ clkgen.delay_100ns_3.genblk1\[20\].delay_unit/in VPWR VGND VPWR VGND sky130_mm_sc_hd_dly5ns
Xedgedetect.delay_400ns.genblk1\[2\].delay_unit edgedetect.delay_400ns.genblk1\[2\].delay_unit/in
+ edgedetect.delay_400ns.genblk1\[3\].delay_unit/in VPWR VGND VPWR VGND sky130_mm_sc_hd_dly5ns
XFILLER_20_49 VGND VGND VPWR VPWR sky130_fd_sc_hd__decap_6
XFILLER_1_84 VGND VGND VPWR VPWR sky130_fd_sc_hd__decap_4
Xedgedetect.delay_400ns.genblk1\[38\].delay_unit edgedetect.delay_400ns.genblk1\[38\].delay_unit/in
+ edgedetect.delay_400ns.genblk1\[39\].delay_unit/in VPWR VGND VPWR VGND sky130_mm_sc_hd_dly5ns
XFILLER_19_167 VGND VGND VPWR VPWR sky130_fd_sc_hd__fill_1
XFILLER_19_101 VGND VGND VPWR VPWR sky130_fd_sc_hd__decap_8
Xclkgen.delay_100ns_1.genblk1\[5\].delay_unit clkgen.delay_100ns_1.genblk1\[5\].delay_unit/in
+ clkgen.delay_100ns_1.genblk1\[6\].delay_unit/in VPWR VGND VPWR VGND sky130_mm_sc_hd_dly5ns
Xedgedetect.delay_400ns.genblk1\[40\].delay_unit edgedetect.delay_400ns.genblk1\[40\].delay_unit/in
+ _2_/A_N VPWR VGND VPWR VGND sky130_mm_sc_hd_dly5ns
XFILLER_6_29 VGND VGND VPWR VPWR sky130_fd_sc_hd__decap_6
XFILLER_16_137 VGND VGND VPWR VPWR sky130_fd_sc_hd__decap_3
XTAP_107 VGND VPWR sky130_fd_sc_hd__tapvpwrvgnd_1
XPHY_1 VGND VGND VPWR VPWR sky130_fd_sc_hd__decap_3
XFILLER_13_107 VGND VGND VPWR VPWR sky130_fd_sc_hd__decap_4
XFILLER_8_133 VGND VGND VPWR VPWR sky130_fd_sc_hd__decap_6
XFILLER_12_173 VGND VGND VPWR VPWR sky130_fd_sc_hd__decap_6
XFILLER_5_169 VGND VGND VPWR VPWR sky130_fd_sc_hd__decap_8
Xedgedetect.delay_400ns.genblk1\[7\].delay_unit edgedetect.delay_400ns.genblk1\[7\].delay_unit/in
+ edgedetect.delay_400ns.genblk1\[8\].delay_unit/in VPWR VGND VPWR VGND sky130_mm_sc_hd_dly5ns
XFILLER_2_139 VGND VGND VPWR VPWR sky130_fd_sc_hd__fill_1
XFILLER_1_63 VGND VGND VPWR VPWR sky130_fd_sc_hd__fill_1
XFILLER_1_52 VGND VGND VPWR VPWR sky130_fd_sc_hd__decap_4
XFILLER_19_113 VGND VPWR VPWR VGND sky130_ef_sc_hd__decap_12
XFILLER_10_83 VGND VGND VPWR VPWR sky130_fd_sc_hd__fill_1
XFILLER_16_149 VGND VGND VPWR VPWR sky130_fd_sc_hd__fill_2
XFILLER_16_105 VGND VPWR VPWR VGND sky130_ef_sc_hd__decap_12
XFILLER_15_28 VGND VGND VPWR VPWR sky130_fd_sc_hd__decap_4
XTAP_108 VGND VPWR sky130_fd_sc_hd__tapvpwrvgnd_1
XPHY_2 VGND VGND VPWR VPWR sky130_fd_sc_hd__decap_3
XFILLER_7_84 VGND VGND VPWR VPWR sky130_fd_sc_hd__decap_4
XFILLER_12_29 VGND VGND VPWR VPWR sky130_fd_sc_hd__fill_1
XFILLER_4_170 VGND VGND VPWR VPWR sky130_fd_sc_hd__decap_8
XFILLER_19_169 VGND VGND VPWR VPWR sky130_fd_sc_hd__decap_8
XFILLER_19_125 VGND VPWR VPWR VGND sky130_ef_sc_hd__decap_12
XTAP_109 VGND VPWR sky130_fd_sc_hd__tapvpwrvgnd_1
XFILLER_16_117 VGND VPWR VPWR VGND sky130_ef_sc_hd__decap_12
XPHY_3 VGND VGND VPWR VPWR sky130_fd_sc_hd__decap_3
XFILLER_7_52 VGND VGND VPWR VPWR sky130_fd_sc_hd__decap_4
XFILLER_7_63 VGND VGND VPWR VPWR sky130_fd_sc_hd__fill_1
Xclkgen.delay_100ns_2.genblk1\[13\].delay_unit clkgen.delay_100ns_2.genblk1\[13\].delay_unit/in
+ clkgen.delay_100ns_2.genblk1\[14\].delay_unit/in VPWR VGND VPWR VGND sky130_mm_sc_hd_dly5ns
XFILLER_4_53 VGND VGND VPWR VPWR sky130_fd_sc_hd__decap_4
XFILLER_13_95 VGND VPWR VPWR VGND sky130_ef_sc_hd__decap_12
XFILLER_18_29 VGND VGND VPWR VPWR sky130_fd_sc_hd__fill_2
Xclkgen.delay_100ns_3.genblk1\[3\].delay_unit clkgen.delay_100ns_3.genblk1\[3\].delay_unit/in
+ clkgen.delay_100ns_3.genblk1\[4\].delay_unit/in VPWR VGND VPWR VGND sky130_mm_sc_hd_dly5ns
XFILLER_1_7 VGND VGND VPWR VPWR sky130_fd_sc_hd__fill_1
XFILLER_19_137 VGND VPWR VPWR VGND sky130_ef_sc_hd__decap_12
Xclkgen.delay_100ns_2.genblk1\[18\].delay_unit clkgen.delay_100ns_2.genblk1\[18\].delay_unit/in
+ clkgen.delay_100ns_2.genblk1\[19\].delay_unit/in VPWR VGND VPWR VGND sky130_mm_sc_hd_dly5ns
XFILLER_16_129 VGND VGND VPWR VPWR sky130_fd_sc_hd__decap_8
Xclkgen.delay_100ns_2.genblk1\[20\].delay_unit clkgen.delay_100ns_2.genblk1\[20\].delay_unit/in
+ _3_/B1_N VPWR VGND VPWR VGND sky130_mm_sc_hd_dly5ns
XPHY_4 VGND VGND VPWR VPWR sky130_fd_sc_hd__decap_3
Xclkgen.delay_100ns_3.genblk1\[8\].delay_unit clkgen.delay_100ns_3.genblk1\[8\].delay_unit/in
+ clkgen.delay_100ns_3.genblk1\[9\].delay_unit/in VPWR VGND VPWR VGND sky130_mm_sc_hd_dly5ns
XFILLER_13_52 VGND VGND VPWR VPWR sky130_fd_sc_hd__decap_4
Xedgedetect.delay_400ns.genblk1\[10\].delay_unit edgedetect.delay_400ns.genblk1\[9\].delay_unit/out
+ edgedetect.delay_400ns.genblk1\[11\].delay_unit/in VPWR VGND VPWR VGND sky130_mm_sc_hd_dly5ns
XFILLER_19_149 VGND VPWR VPWR VGND sky130_ef_sc_hd__decap_12
XFILLER_10_75 VGND VGND VPWR VPWR sky130_fd_sc_hd__decap_8
XFILLER_18_3 VGND VGND VPWR VPWR sky130_fd_sc_hd__fill_1
XPHY_5 VGND VGND VPWR VPWR sky130_fd_sc_hd__decap_3
XFILLER_4_77 VGND VGND VPWR VPWR sky130_fd_sc_hd__decap_6
Xedgedetect.delay_400ns.genblk1\[15\].delay_unit edgedetect.delay_400ns.genblk1\[15\].delay_unit/in
+ edgedetect.delay_400ns.genblk1\[16\].delay_unit/in VPWR VGND VPWR VGND sky130_mm_sc_hd_dly5ns
Xclkgen.delay_100ns_2.genblk1\[2\].delay_unit clkgen.delay_100ns_2.genblk1\[2\].delay_unit/in
+ clkgen.delay_100ns_2.genblk1\[3\].delay_unit/in VPWR VGND VPWR VGND sky130_mm_sc_hd_dly5ns
XFILLER_1_165 VGND VGND VPWR VPWR sky130_fd_sc_hd__decap_3
XPHY_6 VGND VGND VPWR VPWR sky130_fd_sc_hd__decap_3
XFILLER_15_164 VGND VGND VPWR VPWR sky130_fd_sc_hd__decap_4
Xedgedetect.delay_400ns.genblk1\[22\].delay_unit edgedetect.delay_400ns.genblk1\[22\].delay_unit/in
+ edgedetect.delay_400ns.genblk1\[23\].delay_unit/in VPWR VGND VPWR VGND sky130_mm_sc_hd_dly5ns
Xclkgen.delay_100ns_2.genblk1\[7\].delay_unit clkgen.delay_100ns_2.genblk1\[7\].delay_unit/in
+ clkgen.delay_100ns_2.genblk1\[8\].delay_unit/in VPWR VGND VPWR VGND sky130_mm_sc_hd_dly5ns
XFILLER_5_108 VGND VGND VPWR VPWR sky130_fd_sc_hd__decap_4
XFILLER_4_141 VGND VGND VPWR VPWR sky130_fd_sc_hd__decap_8
XFILLER_1_177 VGND VGND VPWR VPWR sky130_fd_sc_hd__fill_2
XFILLER_1_133 VGND VGND VPWR VPWR sky130_fd_sc_hd__decap_4
XFILLER_8_3 VGND VGND VPWR VPWR sky130_fd_sc_hd__fill_1
Xclkgen.delay_100ns_3.genblk1\[10\].delay_unit clkgen.delay_100ns_3.genblk1\[9\].delay_unit/out
+ clkgen.delay_100ns_3.genblk1\[11\].delay_unit/in VPWR VGND VPWR VGND sky130_mm_sc_hd_dly5ns
Xclkgen.delay_100ns_1.genblk1\[12\].delay_unit clkgen.delay_100ns_1.genblk1\[12\].delay_unit/in
+ clkgen.delay_100ns_1.genblk1\[13\].delay_unit/in VPWR VGND VPWR VGND sky130_mm_sc_hd_dly5ns
XFILLER_1_57 VGND VGND VPWR VPWR sky130_fd_sc_hd__decap_6
Xedgedetect.delay_400ns.genblk1\[27\].delay_unit edgedetect.delay_400ns.genblk1\[27\].delay_unit/in
+ edgedetect.delay_400ns.genblk1\[28\].delay_unit/in VPWR VGND VPWR VGND sky130_mm_sc_hd_dly5ns
XTAP_90 VGND VPWR sky130_fd_sc_hd__tapvpwrvgnd_1
XPHY_7 VGND VGND VPWR VPWR sky130_fd_sc_hd__decap_3
XFILLER_15_143 VGND VGND VPWR VPWR sky130_fd_sc_hd__fill_1
XFILLER_8_139 VGND VGND VPWR VPWR sky130_fd_sc_hd__fill_1
XFILLER_12_113 VGND VGND VPWR VPWR sky130_fd_sc_hd__decap_3
Xclkgen.delay_100ns_3.genblk1\[15\].delay_unit clkgen.delay_100ns_3.genblk1\[15\].delay_unit/in
+ clkgen.delay_100ns_3.genblk1\[16\].delay_unit/in VPWR VGND VPWR VGND sky130_mm_sc_hd_dly5ns
Xclkgen.delay_100ns_1.genblk1\[17\].delay_unit clkgen.delay_100ns_1.genblk1\[17\].delay_unit/in
+ clkgen.delay_100ns_1.genblk1\[18\].delay_unit/in VPWR VGND VPWR VGND sky130_mm_sc_hd_dly5ns
XFILLER_4_24 VGND VGND VPWR VPWR sky130_fd_sc_hd__decap_4
Xedgedetect.delay_400ns.genblk1\[34\].delay_unit edgedetect.delay_400ns.genblk1\[34\].delay_unit/in
+ edgedetect.delay_400ns.genblk1\[35\].delay_unit/in VPWR VGND VPWR VGND sky130_mm_sc_hd_dly5ns
Xclkgen.delay_100ns_1.genblk1\[1\].delay_unit comp_trig clkgen.delay_100ns_1.genblk1\[2\].delay_unit/in
+ VPWR VGND VPWR VGND sky130_mm_sc_hd_dly5ns
XTAP_80 VGND VPWR sky130_fd_sc_hd__tapvpwrvgnd_1
XTAP_91 VGND VPWR sky130_fd_sc_hd__tapvpwrvgnd_1
XFILLER_19_54 VGND VGND VPWR VPWR sky130_fd_sc_hd__fill_2
XFILLER_18_141 VGND VPWR VPWR VGND sky130_ef_sc_hd__decap_12
Xedgedetect.delay_400ns.genblk1\[39\].delay_unit edgedetect.delay_400ns.genblk1\[39\].delay_unit/in
+ edgedetect.delay_400ns.genblk1\[40\].delay_unit/in VPWR VGND VPWR VGND sky130_mm_sc_hd_dly5ns
XPHY_8 VGND VGND VPWR VPWR sky130_fd_sc_hd__decap_3
XFILLER_7_57 VGND VGND VPWR VPWR sky130_fd_sc_hd__decap_6
Xedgedetect.delay_400ns.genblk1\[3\].delay_unit edgedetect.delay_400ns.genblk1\[3\].delay_unit/in
+ edgedetect.delay_400ns.genblk1\[4\].delay_unit/in VPWR VGND VPWR VGND sky130_mm_sc_hd_dly5ns
XFILLER_15_177 VGND VGND VPWR VPWR sky130_fd_sc_hd__fill_2
XFILLER_16_3 VGND VGND VPWR VPWR sky130_fd_sc_hd__fill_1
XFILLER_12_136 VGND VGND VPWR VPWR sky130_fd_sc_hd__decap_4
Xclkgen.delay_100ns_1.genblk1\[6\].delay_unit clkgen.delay_100ns_1.genblk1\[6\].delay_unit/in
+ clkgen.delay_100ns_1.genblk1\[7\].delay_unit/in VPWR VGND VPWR VGND sky130_mm_sc_hd_dly5ns
XFILLER_1_157 VGND VGND VPWR VPWR sky130_fd_sc_hd__decap_8
Xedgedetect.delay_400ns.genblk1\[8\].delay_unit edgedetect.delay_400ns.genblk1\[8\].delay_unit/in
+ edgedetect.delay_400ns.genblk1\[9\].delay_unit/in VPWR VGND VPWR VGND sky130_mm_sc_hd_dly5ns
XTAP_70 VGND VPWR sky130_fd_sc_hd__tapvpwrvgnd_1
XTAP_81 VGND VPWR sky130_fd_sc_hd__tapvpwrvgnd_1
XTAP_92 VGND VPWR sky130_fd_sc_hd__tapvpwrvgnd_1
XFILLER_19_109 VGND VGND VPWR VPWR sky130_fd_sc_hd__decap_3
XFILLER_19_77 VGND VPWR VPWR VGND sky130_ef_sc_hd__decap_12
XFILLER_10_24 VGND VGND VPWR VPWR sky130_fd_sc_hd__decap_4
XFILLER_18_175 VGND VGND VPWR VPWR sky130_fd_sc_hd__decap_4
XFILLER_18_153 VGND VGND VPWR VPWR sky130_fd_sc_hd__fill_2
XFILLER_2_80 VGND VGND VPWR VPWR sky130_fd_sc_hd__decap_4
XPHY_9 VGND VGND VPWR VPWR sky130_fd_sc_hd__decap_3
XFILLER_13_57 VGND VPWR VPWR VGND sky130_ef_sc_hd__decap_12
XFILLER_1_169 VGND VGND VPWR VPWR sky130_fd_sc_hd__decap_8
XFILLER_6_3 VGND VGND VPWR VPWR sky130_fd_sc_hd__fill_1
XTAP_93 VGND VPWR sky130_fd_sc_hd__tapvpwrvgnd_1
XTAP_60 VGND VPWR sky130_fd_sc_hd__tapvpwrvgnd_1
XTAP_71 VGND VPWR sky130_fd_sc_hd__tapvpwrvgnd_1
XTAP_82 VGND VPWR sky130_fd_sc_hd__tapvpwrvgnd_1
XFILLER_19_89 VGND VPWR VPWR VGND sky130_ef_sc_hd__decap_12
XFILLER_19_23 VGND VGND VPWR VPWR sky130_fd_sc_hd__decap_3
XFILLER_18_121 VGND VPWR VPWR VGND sky130_ef_sc_hd__decap_12
XFILLER_15_113 VGND VPWR VPWR VGND sky130_ef_sc_hd__decap_12
XFILLER_16_57 VGND VGND VPWR VPWR sky130_fd_sc_hd__decap_3
XFILLER_16_24 VGND VGND VPWR VPWR sky130_fd_sc_hd__decap_4
XFILLER_12_105 VGND VGND VPWR VPWR sky130_fd_sc_hd__decap_8
XFILLER_8_80 VGND VGND VPWR VPWR sky130_fd_sc_hd__decap_4
XFILLER_4_178 VGND VGND VPWR VPWR sky130_fd_sc_hd__fill_1
XFILLER_13_69 VGND VGND VPWR VPWR sky130_fd_sc_hd__decap_6
Xclkgen.delay_100ns_2.genblk1\[14\].delay_unit clkgen.delay_100ns_2.genblk1\[14\].delay_unit/in
+ clkgen.delay_100ns_2.genblk1\[15\].delay_unit/in VPWR VGND VPWR VGND sky130_mm_sc_hd_dly5ns
XFILLER_1_28 VGND VGND VPWR VPWR sky130_fd_sc_hd__decap_4
XFILLER_19_46 VGND VGND VPWR VPWR sky130_fd_sc_hd__decap_8
XTAP_94 VGND VPWR sky130_fd_sc_hd__tapvpwrvgnd_1
XTAP_50 VGND VPWR sky130_fd_sc_hd__tapvpwrvgnd_1
XTAP_61 VGND VPWR sky130_fd_sc_hd__tapvpwrvgnd_1
XTAP_72 VGND VPWR sky130_fd_sc_hd__tapvpwrvgnd_1
XTAP_83 VGND VPWR sky130_fd_sc_hd__tapvpwrvgnd_1
XFILLER_18_133 VGND VGND VPWR VPWR sky130_fd_sc_hd__decap_6
Xclkgen.delay_100ns_3.genblk1\[4\].delay_unit clkgen.delay_100ns_3.genblk1\[4\].delay_unit/in
+ clkgen.delay_100ns_3.genblk1\[5\].delay_unit/in VPWR VGND VPWR VGND sky130_mm_sc_hd_dly5ns
XFILLER_15_125 VGND VPWR VPWR VGND sky130_ef_sc_hd__decap_12
XFILLER_15_169 VGND VGND VPWR VPWR sky130_fd_sc_hd__decap_8
XFILLER_7_165 VGND VGND VPWR VPWR sky130_fd_sc_hd__decap_3
XFILLER_14_3 VGND VGND VPWR VPWR sky130_fd_sc_hd__fill_1
Xclkgen.delay_100ns_2.genblk1\[19\].delay_unit clkgen.delay_100ns_2.genblk1\[19\].delay_unit/in
+ clkgen.delay_100ns_2.genblk1\[20\].delay_unit/in VPWR VGND VPWR VGND sky130_mm_sc_hd_dly5ns
XFILLER_4_113 VGND VGND VPWR VPWR sky130_fd_sc_hd__decap_3
Xclkgen.delay_100ns_3.genblk1\[9\].delay_unit clkgen.delay_100ns_3.genblk1\[9\].delay_unit/in
+ clkgen.delay_100ns_3.genblk1\[9\].delay_unit/out VPWR VGND VPWR VGND sky130_mm_sc_hd_dly5ns
XFILLER_14_80 VGND VGND VPWR VPWR sky130_fd_sc_hd__decap_4
XTAP_95 VGND VPWR sky130_fd_sc_hd__tapvpwrvgnd_1
XTAP_51 VGND VPWR sky130_fd_sc_hd__tapvpwrvgnd_1
XTAP_62 VGND VPWR sky130_fd_sc_hd__tapvpwrvgnd_1
XTAP_73 VGND VPWR sky130_fd_sc_hd__tapvpwrvgnd_1
XFILLER_10_49 VGND VGND VPWR VPWR sky130_fd_sc_hd__decap_6
XTAP_84 VGND VPWR sky130_fd_sc_hd__tapvpwrvgnd_1
XFILLER_15_137 VGND VGND VPWR VPWR sky130_fd_sc_hd__decap_6
Xedgedetect.delay_400ns.genblk1\[11\].delay_unit edgedetect.delay_400ns.genblk1\[11\].delay_unit/in
+ edgedetect.delay_400ns.genblk1\[12\].delay_unit/in VPWR VGND VPWR VGND sky130_mm_sc_hd_dly5ns
XFILLER_7_28 VGND VGND VPWR VPWR sky130_fd_sc_hd__decap_4
XFILLER_11_92 VGND VPWR VPWR VGND sky130_ef_sc_hd__decap_12
XFILLER_7_133 VGND VGND VPWR VPWR sky130_fd_sc_hd__decap_4
XFILLER_7_177 VGND VGND VPWR VPWR sky130_fd_sc_hd__fill_2
XFILLER_4_29 VGND VGND VPWR VPWR sky130_fd_sc_hd__decap_4
XFILLER_4_136 VGND VGND VPWR VPWR sky130_fd_sc_hd__decap_4
Xedgedetect.delay_400ns.genblk1\[16\].delay_unit edgedetect.delay_400ns.genblk1\[16\].delay_unit/in
+ edgedetect.delay_400ns.genblk1\[17\].delay_unit/in VPWR VGND VPWR VGND sky130_mm_sc_hd_dly5ns
XTAP_96 VGND VPWR sky130_fd_sc_hd__tapvpwrvgnd_1
XTAP_52 VGND VPWR sky130_fd_sc_hd__tapvpwrvgnd_1
XTAP_63 VGND VPWR sky130_fd_sc_hd__tapvpwrvgnd_1
XTAP_74 VGND VPWR sky130_fd_sc_hd__tapvpwrvgnd_1
XTAP_85 VGND VPWR sky130_fd_sc_hd__tapvpwrvgnd_1
XFILLER_19_15 VGND VGND VPWR VPWR sky130_fd_sc_hd__decap_8
X_3_ ena_in _2_/X _3_/B1_N VGND VGND VPWR VPWR _3_/X sky130_fd_sc_hd__o21ba_2
XFILLER_4_3 VGND VGND VPWR VPWR sky130_fd_sc_hd__fill_1
Xclkgen.delay_100ns_2.genblk1\[3\].delay_unit clkgen.delay_100ns_2.genblk1\[3\].delay_unit/in
+ clkgen.delay_100ns_2.genblk1\[4\].delay_unit/in VPWR VGND VPWR VGND sky130_mm_sc_hd_dly5ns
XFILLER_20_141 VGND VPWR VPWR VGND sky130_ef_sc_hd__decap_12
XFILLER_16_49 VGND VGND VPWR VPWR sky130_fd_sc_hd__decap_8
Xedgedetect.delay_400ns.genblk1\[23\].delay_unit edgedetect.delay_400ns.genblk1\[23\].delay_unit/in
+ edgedetect.delay_400ns.genblk1\[24\].delay_unit/in VPWR VGND VPWR VGND sky130_mm_sc_hd_dly5ns
Xclkgen.delay_100ns_2.genblk1\[8\].delay_unit clkgen.delay_100ns_2.genblk1\[8\].delay_unit/in
+ clkgen.delay_100ns_2.genblk1\[9\].delay_unit/in VPWR VGND VPWR VGND sky130_mm_sc_hd_dly5ns
XFILLER_13_28 VGND VGND VPWR VPWR sky130_fd_sc_hd__decap_4
XFILLER_5_84 VGND VGND VPWR VPWR sky130_fd_sc_hd__decap_4
XTAP_97 VGND VPWR sky130_fd_sc_hd__tapvpwrvgnd_1
XTAP_53 VGND VPWR sky130_fd_sc_hd__tapvpwrvgnd_1
XTAP_42 VGND VPWR sky130_fd_sc_hd__tapvpwrvgnd_1
XTAP_64 VGND VPWR sky130_fd_sc_hd__tapvpwrvgnd_1
XTAP_75 VGND VPWR sky130_fd_sc_hd__tapvpwrvgnd_1
XTAP_86 VGND VPWR sky130_fd_sc_hd__tapvpwrvgnd_1
Xclkgen.delay_100ns_3.genblk1\[11\].delay_unit clkgen.delay_100ns_3.genblk1\[11\].delay_unit/in
+ clkgen.delay_100ns_3.genblk1\[12\].delay_unit/in VPWR VGND VPWR VGND sky130_mm_sc_hd_dly5ns
X_2_ _2_/A_N start_conv VGND VGND VPWR VPWR _2_/X sky130_fd_sc_hd__and2b_2
XFILLER_2_85 VGND VPWR VPWR VGND sky130_ef_sc_hd__decap_12
Xclkgen.delay_100ns_1.genblk1\[13\].delay_unit clkgen.delay_100ns_1.genblk1\[13\].delay_unit/in
+ clkgen.delay_100ns_1.genblk1\[14\].delay_unit/in VPWR VGND VPWR VGND sky130_mm_sc_hd_dly5ns
Xedgedetect.delay_400ns.genblk1\[28\].delay_unit edgedetect.delay_400ns.genblk1\[28\].delay_unit/in
+ edgedetect.delay_400ns.genblk1\[29\].delay_unit/in VPWR VGND VPWR VGND sky130_mm_sc_hd_dly5ns
Xedgedetect.delay_400ns.genblk1\[30\].delay_unit edgedetect.delay_400ns.genblk1\[30\].delay_unit/in
+ edgedetect.delay_400ns.genblk1\[31\].delay_unit/in VPWR VGND VPWR VGND sky130_mm_sc_hd_dly5ns
XFILLER_20_153 VGND VPWR VPWR VGND sky130_ef_sc_hd__decap_12
XFILLER_7_157 VGND VGND VPWR VPWR sky130_fd_sc_hd__decap_8
XFILLER_4_105 VGND VGND VPWR VPWR sky130_fd_sc_hd__decap_8
XFILLER_4_149 VGND VGND VPWR VPWR sky130_fd_sc_hd__fill_1
XFILLER_1_108 VGND VGND VPWR VPWR sky130_fd_sc_hd__decap_4
XFILLER_12_3 VGND VGND VPWR VPWR sky130_fd_sc_hd__fill_1
XFILLER_0_141 VGND VGND VPWR VPWR sky130_fd_sc_hd__decap_3
Xclkgen.delay_100ns_3.genblk1\[16\].delay_unit clkgen.delay_100ns_3.genblk1\[16\].delay_unit/in
+ clkgen.delay_100ns_3.genblk1\[17\].delay_unit/in VPWR VGND VPWR VGND sky130_mm_sc_hd_dly5ns
Xclkgen.delay_100ns_1.genblk1\[18\].delay_unit clkgen.delay_100ns_1.genblk1\[18\].delay_unit/in
+ clkgen.delay_100ns_1.genblk1\[19\].delay_unit/in VPWR VGND VPWR VGND sky130_mm_sc_hd_dly5ns
XFILLER_5_52 VGND VGND VPWR VPWR sky130_fd_sc_hd__decap_4
XFILLER_5_63 VGND VGND VPWR VPWR sky130_fd_sc_hd__fill_1
Xclkgen.delay_100ns_1.genblk1\[20\].delay_unit clkgen.delay_100ns_1.genblk1\[20\].delay_unit/in
+ _1_/A VPWR VGND VPWR VGND sky130_mm_sc_hd_dly5ns
XTAP_98 VGND VPWR sky130_fd_sc_hd__tapvpwrvgnd_1
XTAP_54 VGND VPWR sky130_fd_sc_hd__tapvpwrvgnd_1
XTAP_43 VGND VPWR sky130_fd_sc_hd__tapvpwrvgnd_1
Xedgedetect.delay_400ns.genblk1\[35\].delay_unit edgedetect.delay_400ns.genblk1\[35\].delay_unit/in
+ edgedetect.delay_400ns.genblk1\[36\].delay_unit/in VPWR VGND VPWR VGND sky130_mm_sc_hd_dly5ns
XTAP_65 VGND VPWR sky130_fd_sc_hd__tapvpwrvgnd_1
XTAP_76 VGND VPWR sky130_fd_sc_hd__tapvpwrvgnd_1
XTAP_87 VGND VPWR sky130_fd_sc_hd__tapvpwrvgnd_1
Xclkgen.delay_100ns_1.genblk1\[2\].delay_unit clkgen.delay_100ns_1.genblk1\[2\].delay_unit/in
+ clkgen.delay_100ns_1.genblk1\[3\].delay_unit/in VPWR VGND VPWR VGND sky130_mm_sc_hd_dly5ns
X_1_ _1_/A VGND VGND VPWR VPWR clk_dig sky130_fd_sc_hd__inv_2
XFILLER_2_97 VGND VGND VPWR VPWR sky130_fd_sc_hd__decap_6
XFILLER_11_40 VGND VPWR VPWR VGND sky130_ef_sc_hd__decap_12
XFILLER_20_165 VGND VGND VPWR VPWR sky130_fd_sc_hd__decap_3
XFILLER_7_169 VGND VGND VPWR VPWR sky130_fd_sc_hd__decap_8
XFILLER_11_165 VGND VGND VPWR VPWR sky130_fd_sc_hd__decap_3
XFILLER_8_85 VGND VPWR VPWR VGND sky130_ef_sc_hd__decap_12
Xedgedetect.delay_400ns.genblk1\[4\].delay_unit edgedetect.delay_400ns.genblk1\[4\].delay_unit/in
+ edgedetect.delay_400ns.genblk1\[5\].delay_unit/in VPWR VGND VPWR VGND sky130_mm_sc_hd_dly5ns
XFILLER_3_172 VGND VGND VPWR VPWR sky130_fd_sc_hd__decap_6
Xclkgen.delay_100ns_1.genblk1\[7\].delay_unit clkgen.delay_100ns_1.genblk1\[7\].delay_unit/in
+ clkgen.delay_100ns_1.genblk1\[8\].delay_unit/in VPWR VGND VPWR VGND sky130_mm_sc_hd_dly5ns
XFILLER_0_164 VGND VGND VPWR VPWR sky130_fd_sc_hd__decap_4
XTAP_99 VGND VPWR sky130_fd_sc_hd__tapvpwrvgnd_1
XTAP_55 VGND VPWR sky130_fd_sc_hd__tapvpwrvgnd_1
XTAP_44 VGND VPWR sky130_fd_sc_hd__tapvpwrvgnd_1
XTAP_66 VGND VPWR sky130_fd_sc_hd__tapvpwrvgnd_1
XTAP_77 VGND VPWR sky130_fd_sc_hd__tapvpwrvgnd_1
XTAP_88 VGND VPWR sky130_fd_sc_hd__tapvpwrvgnd_1
Xedgedetect.delay_400ns.genblk1\[9\].delay_unit edgedetect.delay_400ns.genblk1\[9\].delay_unit/in
+ edgedetect.delay_400ns.genblk1\[9\].delay_unit/out VPWR VGND VPWR VGND sky130_mm_sc_hd_dly5ns
XFILLER_15_108 VGND VGND VPWR VPWR sky130_fd_sc_hd__decap_4
XFILLER_2_3 VGND VGND VPWR VPWR sky130_fd_sc_hd__fill_1
XFILLER_11_52 VGND VGND VPWR VPWR sky130_fd_sc_hd__decap_4
XFILLER_14_141 VGND VGND VPWR VPWR sky130_fd_sc_hd__fill_2
XFILLER_14_163 VGND VPWR VPWR VGND sky130_ef_sc_hd__decap_12
XFILLER_20_177 VGND VGND VPWR VPWR sky130_fd_sc_hd__fill_2
XFILLER_11_177 VGND VGND VPWR VPWR sky130_fd_sc_hd__fill_2
XFILLER_8_97 VGND VGND VPWR VPWR sky130_fd_sc_hd__decap_4
XFILLER_17_95 VGND VPWR VPWR VGND sky130_ef_sc_hd__decap_12
XFILLER_3_140 VGND VGND VPWR VPWR sky130_fd_sc_hd__decap_4
XFILLER_14_85 VGND VPWR VPWR VGND sky130_ef_sc_hd__decap_12
XTAP_45 VGND VPWR sky130_fd_sc_hd__tapvpwrvgnd_1
XTAP_56 VGND VPWR sky130_fd_sc_hd__tapvpwrvgnd_1
XTAP_67 VGND VPWR sky130_fd_sc_hd__tapvpwrvgnd_1
XTAP_78 VGND VPWR sky130_fd_sc_hd__tapvpwrvgnd_1
XTAP_89 VGND VPWR sky130_fd_sc_hd__tapvpwrvgnd_1
XFILLER_18_139 VGND VGND VPWR VPWR sky130_fd_sc_hd__fill_1
XPHY_40 VGND VGND VPWR VPWR sky130_fd_sc_hd__decap_3
XFILLER_17_161 VGND VGND VPWR VPWR sky130_fd_sc_hd__decap_6
XFILLER_14_175 VGND VGND VPWR VPWR sky130_fd_sc_hd__decap_4
XFILLER_11_145 VGND VPWR VPWR VGND sky130_ef_sc_hd__decap_12
Xclkgen.delay_100ns_2.genblk1\[10\].delay_unit clkgen.delay_100ns_2.genblk1\[9\].delay_unit/out
+ clkgen.delay_100ns_2.genblk1\[11\].delay_unit/in VPWR VGND VPWR VGND sky130_mm_sc_hd_dly5ns
XFILLER_17_52 VGND VGND VPWR VPWR sky130_fd_sc_hd__decap_4
XFILLER_0_177 VGND VGND VPWR VPWR sky130_fd_sc_hd__fill_2
XFILLER_10_3 VGND VGND VPWR VPWR sky130_fd_sc_hd__fill_1
XFILLER_14_97 VGND VGND VPWR VPWR sky130_fd_sc_hd__decap_4
XTAP_46 VGND VPWR sky130_fd_sc_hd__tapvpwrvgnd_1
XTAP_57 VGND VPWR sky130_fd_sc_hd__tapvpwrvgnd_1
XTAP_68 VGND VPWR sky130_fd_sc_hd__tapvpwrvgnd_1
XTAP_79 VGND VPWR sky130_fd_sc_hd__tapvpwrvgnd_1
XPHY_41 VGND VGND VPWR VPWR sky130_fd_sc_hd__decap_3
XFILLER_2_56 VGND VGND VPWR VPWR sky130_fd_sc_hd__decap_4
Xclkgen.delay_100ns_2.genblk1\[15\].delay_unit clkgen.delay_100ns_2.genblk1\[15\].delay_unit/in
+ clkgen.delay_100ns_2.genblk1\[16\].delay_unit/in VPWR VGND VPWR VGND sky130_mm_sc_hd_dly5ns
XPHY_30 VGND VGND VPWR VPWR sky130_fd_sc_hd__decap_3
XFILLER_14_121 VGND VPWR VPWR VGND sky130_ef_sc_hd__decap_12
XFILLER_20_113 VGND VPWR VPWR VGND sky130_ef_sc_hd__decap_12
Xclkgen.delay_100ns_3.genblk1\[5\].delay_unit clkgen.delay_100ns_3.genblk1\[5\].delay_unit/in
+ clkgen.delay_100ns_3.genblk1\[6\].delay_unit/in VPWR VGND VPWR VGND sky130_mm_sc_hd_dly5ns
XFILLER_11_113 VGND VPWR VPWR VGND sky130_ef_sc_hd__decap_12
XFILLER_11_157 VGND VGND VPWR VPWR sky130_fd_sc_hd__decap_8
XFILLER_6_161 VGND VPWR VPWR VGND sky130_ef_sc_hd__decap_12
XFILLER_3_164 VGND VGND VPWR VPWR sky130_fd_sc_hd__decap_4
XTAP_47 VGND VPWR sky130_fd_sc_hd__tapvpwrvgnd_1
XTAP_58 VGND VPWR sky130_fd_sc_hd__tapvpwrvgnd_1
XTAP_69 VGND VPWR sky130_fd_sc_hd__tapvpwrvgnd_1
XPHY_20 VGND VGND VPWR VPWR sky130_fd_sc_hd__decap_3