*SPEF "ieee 1481-1999"
*DESIGN "adc_clkgen_with_edgedetect"
*DATE "11:11:11 Fri 11 11, 1111"
*VENDOR "OpenRCX"
*PROGRAM "Parallel Extraction"
*VERSION "1.0"
*DESIGN_FLOW "NAME_SCOPE LOCAL" "PIN_CAP NONE"
*DIVIDER /
*DELIMITER :
*BUS_DELIMITER []
*T_UNIT 1 NS
*C_UNIT 1 PF
*R_UNIT 1 OHM
*L_UNIT 1 HENRY

*NAME_MAP
*3 clk_comp_out
*4 clk_dig_out
*5 dlycontrol1_in[0]
*6 dlycontrol1_in[1]
*7 dlycontrol1_in[2]
*8 dlycontrol1_in[3]
*9 dlycontrol1_in[4]
*10 dlycontrol2_in[0]
*11 dlycontrol2_in[1]
*12 dlycontrol2_in[2]
*13 dlycontrol2_in[3]
*14 dlycontrol2_in[4]
*15 dlycontrol3_in[0]
*16 dlycontrol3_in[1]
*17 dlycontrol3_in[2]
*18 dlycontrol3_in[3]
*19 dlycontrol3_in[4]
*20 dlycontrol4_in[0]
*21 dlycontrol4_in[1]
*22 dlycontrol4_in[2]
*23 dlycontrol4_in[3]
*24 dlycontrol4_in[4]
*25 dlycontrol4_in[5]
*26 ena_in
*27 enable_dlycontrol_in
*28 ndecision_finish_in
*29 nsample_n_in
*30 nsample_n_out
*31 nsample_p_in
*32 nsample_p_out
*33 sample_n_in
*34 sample_n_out
*35 sample_p_in
*36 sample_p_out
*37 start_conv_in
*40 clkgen\.clk_comp_out
*41 clkgen\.clk_dig_delayed_w
*42 clkgen\.clk_dig_out
*43 clkgen\.delay_155ns_1\.bypass_enable_w\[0\]
*44 clkgen\.delay_155ns_1\.bypass_enable_w\[1\]
*45 clkgen\.delay_155ns_1\.bypass_enable_w\[2\]
*46 clkgen\.delay_155ns_1\.bypass_enable_w\[3\]
*47 clkgen\.delay_155ns_1\.bypass_enable_w\[4\]
*48 clkgen\.delay_155ns_1\.enable_dlycontrol_w
*49 clkgen\.delay_155ns_1\.genblk1\[0\]\.dly_binary\.bypass_in
*50 clkgen\.delay_155ns_1\.genblk1\[0\]\.dly_binary\.in
*51 clkgen\.delay_155ns_1\.genblk1\[0\]\.dly_binary\.out
*52 clkgen\.delay_155ns_1\.genblk1\[0\]\.dly_binary\.signal_w\[0\]
*53 clkgen\.delay_155ns_1\.genblk1\[0\]\.dly_binary\.signal_w\[1\]
*54 clkgen\.delay_155ns_1\.genblk1\[1\]\.dly_binary\.bypass_in
*55 clkgen\.delay_155ns_1\.genblk1\[1\]\.dly_binary\.out
*56 clkgen\.delay_155ns_1\.genblk1\[1\]\.dly_binary\.signal_w\[0\]
*57 clkgen\.delay_155ns_1\.genblk1\[1\]\.dly_binary\.signal_w\[1\]
*58 clkgen\.delay_155ns_1\.genblk1\[1\]\.dly_binary\.signal_w\[2\]
*59 clkgen\.delay_155ns_1\.genblk1\[2\]\.dly_binary\.bypass_in
*60 clkgen\.delay_155ns_1\.genblk1\[2\]\.dly_binary\.out
*61 clkgen\.delay_155ns_1\.genblk1\[2\]\.dly_binary\.signal_w\[0\]
*62 clkgen\.delay_155ns_1\.genblk1\[2\]\.dly_binary\.signal_w\[1\]
*63 clkgen\.delay_155ns_1\.genblk1\[2\]\.dly_binary\.signal_w\[2\]
*64 clkgen\.delay_155ns_1\.genblk1\[2\]\.dly_binary\.signal_w\[3\]
*65 clkgen\.delay_155ns_1\.genblk1\[2\]\.dly_binary\.signal_w\[4\]
*66 clkgen\.delay_155ns_1\.genblk1\[3\]\.dly_binary\.bypass_in
*67 clkgen\.delay_155ns_1\.genblk1\[3\]\.dly_binary\.out
*68 clkgen\.delay_155ns_1\.genblk1\[3\]\.dly_binary\.signal_w\[0\]
*69 clkgen\.delay_155ns_1\.genblk1\[3\]\.dly_binary\.signal_w\[1\]
*70 clkgen\.delay_155ns_1\.genblk1\[3\]\.dly_binary\.signal_w\[2\]
*71 clkgen\.delay_155ns_1\.genblk1\[3\]\.dly_binary\.signal_w\[3\]
*72 clkgen\.delay_155ns_1\.genblk1\[3\]\.dly_binary\.signal_w\[4\]
*73 clkgen\.delay_155ns_1\.genblk1\[3\]\.dly_binary\.signal_w\[5\]
*74 clkgen\.delay_155ns_1\.genblk1\[3\]\.dly_binary\.signal_w\[6\]
*75 clkgen\.delay_155ns_1\.genblk1\[3\]\.dly_binary\.signal_w\[7\]
*76 clkgen\.delay_155ns_1\.genblk1\[3\]\.dly_binary\.signal_w\[8\]
*77 clkgen\.delay_155ns_1\.genblk1\[4\]\.dly_binary\.bypass_in
*78 clkgen\.delay_155ns_1\.genblk1\[4\]\.dly_binary\.out
*79 clkgen\.delay_155ns_1\.genblk1\[4\]\.dly_binary\.signal_w\[0\]
*80 clkgen\.delay_155ns_1\.genblk1\[4\]\.dly_binary\.signal_w\[10\]
*81 clkgen\.delay_155ns_1\.genblk1\[4\]\.dly_binary\.signal_w\[11\]
*82 clkgen\.delay_155ns_1\.genblk1\[4\]\.dly_binary\.signal_w\[12\]
*83 clkgen\.delay_155ns_1\.genblk1\[4\]\.dly_binary\.signal_w\[13\]
*84 clkgen\.delay_155ns_1\.genblk1\[4\]\.dly_binary\.signal_w\[14\]
*85 clkgen\.delay_155ns_1\.genblk1\[4\]\.dly_binary\.signal_w\[15\]
*86 clkgen\.delay_155ns_1\.genblk1\[4\]\.dly_binary\.signal_w\[16\]
*87 clkgen\.delay_155ns_1\.genblk1\[4\]\.dly_binary\.signal_w\[1\]
*88 clkgen\.delay_155ns_1\.genblk1\[4\]\.dly_binary\.signal_w\[2\]
*89 clkgen\.delay_155ns_1\.genblk1\[4\]\.dly_binary\.signal_w\[3\]
*90 clkgen\.delay_155ns_1\.genblk1\[4\]\.dly_binary\.signal_w\[4\]
*91 clkgen\.delay_155ns_1\.genblk1\[4\]\.dly_binary\.signal_w\[5\]
*92 clkgen\.delay_155ns_1\.genblk1\[4\]\.dly_binary\.signal_w\[6\]
*93 clkgen\.delay_155ns_1\.genblk1\[4\]\.dly_binary\.signal_w\[7\]
*94 clkgen\.delay_155ns_1\.genblk1\[4\]\.dly_binary\.signal_w\[8\]
*95 clkgen\.delay_155ns_1\.genblk1\[4\]\.dly_binary\.signal_w\[9\]
*96 clkgen\.delay_155ns_2\.bypass_enable_w\[0\]
*97 clkgen\.delay_155ns_2\.bypass_enable_w\[1\]
*98 clkgen\.delay_155ns_2\.bypass_enable_w\[2\]
*99 clkgen\.delay_155ns_2\.bypass_enable_w\[3\]
*100 clkgen\.delay_155ns_2\.bypass_enable_w\[4\]
*101 clkgen\.delay_155ns_2\.enable_dlycontrol_w
*102 clkgen\.delay_155ns_2\.genblk1\[0\]\.dly_binary\.bypass_in
*103 clkgen\.delay_155ns_2\.genblk1\[0\]\.dly_binary\.out
*104 clkgen\.delay_155ns_2\.genblk1\[0\]\.dly_binary\.signal_w\[0\]
*105 clkgen\.delay_155ns_2\.genblk1\[0\]\.dly_binary\.signal_w\[1\]
*106 clkgen\.delay_155ns_2\.genblk1\[1\]\.dly_binary\.bypass_in
*107 clkgen\.delay_155ns_2\.genblk1\[1\]\.dly_binary\.out
*108 clkgen\.delay_155ns_2\.genblk1\[1\]\.dly_binary\.signal_w\[0\]
*109 clkgen\.delay_155ns_2\.genblk1\[1\]\.dly_binary\.signal_w\[1\]
*110 clkgen\.delay_155ns_2\.genblk1\[1\]\.dly_binary\.signal_w\[2\]
*111 clkgen\.delay_155ns_2\.genblk1\[2\]\.dly_binary\.bypass_in
*112 clkgen\.delay_155ns_2\.genblk1\[2\]\.dly_binary\.out
*113 clkgen\.delay_155ns_2\.genblk1\[2\]\.dly_binary\.signal_w\[0\]
*114 clkgen\.delay_155ns_2\.genblk1\[2\]\.dly_binary\.signal_w\[1\]
*115 clkgen\.delay_155ns_2\.genblk1\[2\]\.dly_binary\.signal_w\[2\]
*116 clkgen\.delay_155ns_2\.genblk1\[2\]\.dly_binary\.signal_w\[3\]
*117 clkgen\.delay_155ns_2\.genblk1\[2\]\.dly_binary\.signal_w\[4\]
*118 clkgen\.delay_155ns_2\.genblk1\[3\]\.dly_binary\.bypass_in
*119 clkgen\.delay_155ns_2\.genblk1\[3\]\.dly_binary\.out
*120 clkgen\.delay_155ns_2\.genblk1\[3\]\.dly_binary\.signal_w\[0\]
*121 clkgen\.delay_155ns_2\.genblk1\[3\]\.dly_binary\.signal_w\[1\]
*122 clkgen\.delay_155ns_2\.genblk1\[3\]\.dly_binary\.signal_w\[2\]
*123 clkgen\.delay_155ns_2\.genblk1\[3\]\.dly_binary\.signal_w\[3\]
*124 clkgen\.delay_155ns_2\.genblk1\[3\]\.dly_binary\.signal_w\[4\]
*125 clkgen\.delay_155ns_2\.genblk1\[3\]\.dly_binary\.signal_w\[5\]
*126 clkgen\.delay_155ns_2\.genblk1\[3\]\.dly_binary\.signal_w\[6\]
*127 clkgen\.delay_155ns_2\.genblk1\[3\]\.dly_binary\.signal_w\[7\]
*128 clkgen\.delay_155ns_2\.genblk1\[3\]\.dly_binary\.signal_w\[8\]
*129 clkgen\.delay_155ns_2\.genblk1\[4\]\.dly_binary\.bypass_in
*130 clkgen\.delay_155ns_2\.genblk1\[4\]\.dly_binary\.signal_w\[0\]
*131 clkgen\.delay_155ns_2\.genblk1\[4\]\.dly_binary\.signal_w\[10\]
*132 clkgen\.delay_155ns_2\.genblk1\[4\]\.dly_binary\.signal_w\[11\]
*133 clkgen\.delay_155ns_2\.genblk1\[4\]\.dly_binary\.signal_w\[12\]
*134 clkgen\.delay_155ns_2\.genblk1\[4\]\.dly_binary\.signal_w\[13\]
*135 clkgen\.delay_155ns_2\.genblk1\[4\]\.dly_binary\.signal_w\[14\]
*136 clkgen\.delay_155ns_2\.genblk1\[4\]\.dly_binary\.signal_w\[15\]
*137 clkgen\.delay_155ns_2\.genblk1\[4\]\.dly_binary\.signal_w\[16\]
*138 clkgen\.delay_155ns_2\.genblk1\[4\]\.dly_binary\.signal_w\[1\]
*139 clkgen\.delay_155ns_2\.genblk1\[4\]\.dly_binary\.signal_w\[2\]
*140 clkgen\.delay_155ns_2\.genblk1\[4\]\.dly_binary\.signal_w\[3\]
*141 clkgen\.delay_155ns_2\.genblk1\[4\]\.dly_binary\.signal_w\[4\]
*142 clkgen\.delay_155ns_2\.genblk1\[4\]\.dly_binary\.signal_w\[5\]
*143 clkgen\.delay_155ns_2\.genblk1\[4\]\.dly_binary\.signal_w\[6\]
*144 clkgen\.delay_155ns_2\.genblk1\[4\]\.dly_binary\.signal_w\[7\]
*145 clkgen\.delay_155ns_2\.genblk1\[4\]\.dly_binary\.signal_w\[8\]
*146 clkgen\.delay_155ns_2\.genblk1\[4\]\.dly_binary\.signal_w\[9\]
*147 clkgen\.delay_155ns_3\.bypass_enable_w\[0\]
*148 clkgen\.delay_155ns_3\.bypass_enable_w\[1\]
*149 clkgen\.delay_155ns_3\.bypass_enable_w\[2\]
*150 clkgen\.delay_155ns_3\.bypass_enable_w\[3\]
*151 clkgen\.delay_155ns_3\.bypass_enable_w\[4\]
*152 clkgen\.delay_155ns_3\.enable_dlycontrol_w
*153 clkgen\.delay_155ns_3\.genblk1\[0\]\.dly_binary\.bypass_in
*154 clkgen\.delay_155ns_3\.genblk1\[0\]\.dly_binary\.in
*155 clkgen\.delay_155ns_3\.genblk1\[0\]\.dly_binary\.out
*156 clkgen\.delay_155ns_3\.genblk1\[0\]\.dly_binary\.signal_w\[0\]
*157 clkgen\.delay_155ns_3\.genblk1\[0\]\.dly_binary\.signal_w\[1\]
*158 clkgen\.delay_155ns_3\.genblk1\[1\]\.dly_binary\.bypass_in
*159 clkgen\.delay_155ns_3\.genblk1\[1\]\.dly_binary\.out
*160 clkgen\.delay_155ns_3\.genblk1\[1\]\.dly_binary\.signal_w\[0\]
*161 clkgen\.delay_155ns_3\.genblk1\[1\]\.dly_binary\.signal_w\[1\]
*162 clkgen\.delay_155ns_3\.genblk1\[1\]\.dly_binary\.signal_w\[2\]
*163 clkgen\.delay_155ns_3\.genblk1\[2\]\.dly_binary\.bypass_in
*164 clkgen\.delay_155ns_3\.genblk1\[2\]\.dly_binary\.out
*165 clkgen\.delay_155ns_3\.genblk1\[2\]\.dly_binary\.signal_w\[0\]
*166 clkgen\.delay_155ns_3\.genblk1\[2\]\.dly_binary\.signal_w\[1\]
*167 clkgen\.delay_155ns_3\.genblk1\[2\]\.dly_binary\.signal_w\[2\]
*168 clkgen\.delay_155ns_3\.genblk1\[2\]\.dly_binary\.signal_w\[3\]
*169 clkgen\.delay_155ns_3\.genblk1\[2\]\.dly_binary\.signal_w\[4\]
*170 clkgen\.delay_155ns_3\.genblk1\[3\]\.dly_binary\.bypass_in
*171 clkgen\.delay_155ns_3\.genblk1\[3\]\.dly_binary\.out
*172 clkgen\.delay_155ns_3\.genblk1\[3\]\.dly_binary\.signal_w\[0\]
*173 clkgen\.delay_155ns_3\.genblk1\[3\]\.dly_binary\.signal_w\[1\]
*174 clkgen\.delay_155ns_3\.genblk1\[3\]\.dly_binary\.signal_w\[2\]
*175 clkgen\.delay_155ns_3\.genblk1\[3\]\.dly_binary\.signal_w\[3\]
*176 clkgen\.delay_155ns_3\.genblk1\[3\]\.dly_binary\.signal_w\[4\]
*177 clkgen\.delay_155ns_3\.genblk1\[3\]\.dly_binary\.signal_w\[5\]
*178 clkgen\.delay_155ns_3\.genblk1\[3\]\.dly_binary\.signal_w\[6\]
*179 clkgen\.delay_155ns_3\.genblk1\[3\]\.dly_binary\.signal_w\[7\]
*180 clkgen\.delay_155ns_3\.genblk1\[3\]\.dly_binary\.signal_w\[8\]
*181 clkgen\.delay_155ns_3\.genblk1\[4\]\.dly_binary\.bypass_in
*182 clkgen\.delay_155ns_3\.genblk1\[4\]\.dly_binary\.signal_w\[0\]
*183 clkgen\.delay_155ns_3\.genblk1\[4\]\.dly_binary\.signal_w\[10\]
*184 clkgen\.delay_155ns_3\.genblk1\[4\]\.dly_binary\.signal_w\[11\]
*185 clkgen\.delay_155ns_3\.genblk1\[4\]\.dly_binary\.signal_w\[12\]
*186 clkgen\.delay_155ns_3\.genblk1\[4\]\.dly_binary\.signal_w\[13\]
*187 clkgen\.delay_155ns_3\.genblk1\[4\]\.dly_binary\.signal_w\[14\]
*188 clkgen\.delay_155ns_3\.genblk1\[4\]\.dly_binary\.signal_w\[15\]
*189 clkgen\.delay_155ns_3\.genblk1\[4\]\.dly_binary\.signal_w\[16\]
*190 clkgen\.delay_155ns_3\.genblk1\[4\]\.dly_binary\.signal_w\[1\]
*191 clkgen\.delay_155ns_3\.genblk1\[4\]\.dly_binary\.signal_w\[2\]
*192 clkgen\.delay_155ns_3\.genblk1\[4\]\.dly_binary\.signal_w\[3\]
*193 clkgen\.delay_155ns_3\.genblk1\[4\]\.dly_binary\.signal_w\[4\]
*194 clkgen\.delay_155ns_3\.genblk1\[4\]\.dly_binary\.signal_w\[5\]
*195 clkgen\.delay_155ns_3\.genblk1\[4\]\.dly_binary\.signal_w\[6\]
*196 clkgen\.delay_155ns_3\.genblk1\[4\]\.dly_binary\.signal_w\[7\]
*197 clkgen\.delay_155ns_3\.genblk1\[4\]\.dly_binary\.signal_w\[8\]
*198 clkgen\.delay_155ns_3\.genblk1\[4\]\.dly_binary\.signal_w\[9\]
*199 clkgen\.enable_loop_in
*200 edgedetect\.dly_315ns_1\.bypass_enable_w\[0\]
*201 edgedetect\.dly_315ns_1\.bypass_enable_w\[1\]
*202 edgedetect\.dly_315ns_1\.bypass_enable_w\[2\]
*203 edgedetect\.dly_315ns_1\.bypass_enable_w\[3\]
*204 edgedetect\.dly_315ns_1\.bypass_enable_w\[4\]
*205 edgedetect\.dly_315ns_1\.bypass_enable_w\[5\]
*206 edgedetect\.dly_315ns_1\.enable_dlycontrol_w
*207 edgedetect\.dly_315ns_1\.genblk1\[0\]\.dly_binary\.bypass_in
*208 edgedetect\.dly_315ns_1\.genblk1\[0\]\.dly_binary\.in
*209 edgedetect\.dly_315ns_1\.genblk1\[0\]\.dly_binary\.out
*210 edgedetect\.dly_315ns_1\.genblk1\[0\]\.dly_binary\.signal_w\[0\]
*211 edgedetect\.dly_315ns_1\.genblk1\[0\]\.dly_binary\.signal_w\[1\]
*212 edgedetect\.dly_315ns_1\.genblk1\[1\]\.dly_binary\.bypass_in
*213 edgedetect\.dly_315ns_1\.genblk1\[1\]\.dly_binary\.out
*214 edgedetect\.dly_315ns_1\.genblk1\[1\]\.dly_binary\.signal_w\[0\]
*215 edgedetect\.dly_315ns_1\.genblk1\[1\]\.dly_binary\.signal_w\[1\]
*216 edgedetect\.dly_315ns_1\.genblk1\[1\]\.dly_binary\.signal_w\[2\]
*217 edgedetect\.dly_315ns_1\.genblk1\[2\]\.dly_binary\.bypass_in
*218 edgedetect\.dly_315ns_1\.genblk1\[2\]\.dly_binary\.out
*219 edgedetect\.dly_315ns_1\.genblk1\[2\]\.dly_binary\.signal_w\[0\]
*220 edgedetect\.dly_315ns_1\.genblk1\[2\]\.dly_binary\.signal_w\[1\]
*221 edgedetect\.dly_315ns_1\.genblk1\[2\]\.dly_binary\.signal_w\[2\]
*222 edgedetect\.dly_315ns_1\.genblk1\[2\]\.dly_binary\.signal_w\[3\]
*223 edgedetect\.dly_315ns_1\.genblk1\[2\]\.dly_binary\.signal_w\[4\]
*224 edgedetect\.dly_315ns_1\.genblk1\[3\]\.dly_binary\.bypass_in
*225 edgedetect\.dly_315ns_1\.genblk1\[3\]\.dly_binary\.out
*226 edgedetect\.dly_315ns_1\.genblk1\[3\]\.dly_binary\.signal_w\[0\]
*227 edgedetect\.dly_315ns_1\.genblk1\[3\]\.dly_binary\.signal_w\[1\]
*228 edgedetect\.dly_315ns_1\.genblk1\[3\]\.dly_binary\.signal_w\[2\]
*229 edgedetect\.dly_315ns_1\.genblk1\[3\]\.dly_binary\.signal_w\[3\]
*230 edgedetect\.dly_315ns_1\.genblk1\[3\]\.dly_binary\.signal_w\[4\]
*231 edgedetect\.dly_315ns_1\.genblk1\[3\]\.dly_binary\.signal_w\[5\]
*232 edgedetect\.dly_315ns_1\.genblk1\[3\]\.dly_binary\.signal_w\[6\]
*233 edgedetect\.dly_315ns_1\.genblk1\[3\]\.dly_binary\.signal_w\[7\]
*234 edgedetect\.dly_315ns_1\.genblk1\[3\]\.dly_binary\.signal_w\[8\]
*235 edgedetect\.dly_315ns_1\.genblk1\[4\]\.dly_binary\.bypass_in
*236 edgedetect\.dly_315ns_1\.genblk1\[4\]\.dly_binary\.out
*237 edgedetect\.dly_315ns_1\.genblk1\[4\]\.dly_binary\.signal_w\[0\]
*238 edgedetect\.dly_315ns_1\.genblk1\[4\]\.dly_binary\.signal_w\[10\]
*239 edgedetect\.dly_315ns_1\.genblk1\[4\]\.dly_binary\.signal_w\[11\]
*240 edgedetect\.dly_315ns_1\.genblk1\[4\]\.dly_binary\.signal_w\[12\]
*241 edgedetect\.dly_315ns_1\.genblk1\[4\]\.dly_binary\.signal_w\[13\]
*242 edgedetect\.dly_315ns_1\.genblk1\[4\]\.dly_binary\.signal_w\[14\]
*243 edgedetect\.dly_315ns_1\.genblk1\[4\]\.dly_binary\.signal_w\[15\]
*244 edgedetect\.dly_315ns_1\.genblk1\[4\]\.dly_binary\.signal_w\[16\]
*245 edgedetect\.dly_315ns_1\.genblk1\[4\]\.dly_binary\.signal_w\[1\]
*246 edgedetect\.dly_315ns_1\.genblk1\[4\]\.dly_binary\.signal_w\[2\]
*247 edgedetect\.dly_315ns_1\.genblk1\[4\]\.dly_binary\.signal_w\[3\]
*248 edgedetect\.dly_315ns_1\.genblk1\[4\]\.dly_binary\.signal_w\[4\]
*249 edgedetect\.dly_315ns_1\.genblk1\[4\]\.dly_binary\.signal_w\[5\]
*250 edgedetect\.dly_315ns_1\.genblk1\[4\]\.dly_binary\.signal_w\[6\]
*251 edgedetect\.dly_315ns_1\.genblk1\[4\]\.dly_binary\.signal_w\[7\]
*252 edgedetect\.dly_315ns_1\.genblk1\[4\]\.dly_binary\.signal_w\[8\]
*253 edgedetect\.dly_315ns_1\.genblk1\[4\]\.dly_binary\.signal_w\[9\]
*254 edgedetect\.dly_315ns_1\.genblk1\[5\]\.dly_binary\.bypass_in
*255 edgedetect\.dly_315ns_1\.genblk1\[5\]\.dly_binary\.out
*256 edgedetect\.dly_315ns_1\.genblk1\[5\]\.dly_binary\.signal_w\[0\]
*257 edgedetect\.dly_315ns_1\.genblk1\[5\]\.dly_binary\.signal_w\[10\]
*258 edgedetect\.dly_315ns_1\.genblk1\[5\]\.dly_binary\.signal_w\[11\]
*259 edgedetect\.dly_315ns_1\.genblk1\[5\]\.dly_binary\.signal_w\[12\]
*260 edgedetect\.dly_315ns_1\.genblk1\[5\]\.dly_binary\.signal_w\[13\]
*261 edgedetect\.dly_315ns_1\.genblk1\[5\]\.dly_binary\.signal_w\[14\]
*262 edgedetect\.dly_315ns_1\.genblk1\[5\]\.dly_binary\.signal_w\[15\]
*263 edgedetect\.dly_315ns_1\.genblk1\[5\]\.dly_binary\.signal_w\[16\]
*264 edgedetect\.dly_315ns_1\.genblk1\[5\]\.dly_binary\.signal_w\[17\]
*265 edgedetect\.dly_315ns_1\.genblk1\[5\]\.dly_binary\.signal_w\[18\]
*266 edgedetect\.dly_315ns_1\.genblk1\[5\]\.dly_binary\.signal_w\[19\]
*267 edgedetect\.dly_315ns_1\.genblk1\[5\]\.dly_binary\.signal_w\[1\]
*268 edgedetect\.dly_315ns_1\.genblk1\[5\]\.dly_binary\.signal_w\[20\]
*269 edgedetect\.dly_315ns_1\.genblk1\[5\]\.dly_binary\.signal_w\[21\]
*270 edgedetect\.dly_315ns_1\.genblk1\[5\]\.dly_binary\.signal_w\[22\]
*271 edgedetect\.dly_315ns_1\.genblk1\[5\]\.dly_binary\.signal_w\[23\]
*272 edgedetect\.dly_315ns_1\.genblk1\[5\]\.dly_binary\.signal_w\[24\]
*273 edgedetect\.dly_315ns_1\.genblk1\[5\]\.dly_binary\.signal_w\[25\]
*274 edgedetect\.dly_315ns_1\.genblk1\[5\]\.dly_binary\.signal_w\[26\]
*275 edgedetect\.dly_315ns_1\.genblk1\[5\]\.dly_binary\.signal_w\[27\]
*276 edgedetect\.dly_315ns_1\.genblk1\[5\]\.dly_binary\.signal_w\[28\]
*277 edgedetect\.dly_315ns_1\.genblk1\[5\]\.dly_binary\.signal_w\[29\]
*278 edgedetect\.dly_315ns_1\.genblk1\[5\]\.dly_binary\.signal_w\[2\]
*279 edgedetect\.dly_315ns_1\.genblk1\[5\]\.dly_binary\.signal_w\[30\]
*280 edgedetect\.dly_315ns_1\.genblk1\[5\]\.dly_binary\.signal_w\[31\]
*281 edgedetect\.dly_315ns_1\.genblk1\[5\]\.dly_binary\.signal_w\[32\]
*282 edgedetect\.dly_315ns_1\.genblk1\[5\]\.dly_binary\.signal_w\[3\]
*283 edgedetect\.dly_315ns_1\.genblk1\[5\]\.dly_binary\.signal_w\[4\]
*284 edgedetect\.dly_315ns_1\.genblk1\[5\]\.dly_binary\.signal_w\[5\]
*285 edgedetect\.dly_315ns_1\.genblk1\[5\]\.dly_binary\.signal_w\[6\]
*286 edgedetect\.dly_315ns_1\.genblk1\[5\]\.dly_binary\.signal_w\[7\]
*287 edgedetect\.dly_315ns_1\.genblk1\[5\]\.dly_binary\.signal_w\[8\]
*288 edgedetect\.dly_315ns_1\.genblk1\[5\]\.dly_binary\.signal_w\[9\]
*289 edgedetect\.ena_in
*290 edgedetect\.start_conv_edge_w
*291 nsample_n_1
*292 nsample_n_2
*293 nsample_n_3
*294 nsample_n_4
*295 nsample_p_1
*296 nsample_p_2
*297 nsample_p_3
*298 nsample_p_4
*299 sample_n_1
*300 sample_n_2
*301 sample_n_3
*302 sample_n_4
*303 sample_p_1
*304 sample_p_2
*305 sample_p_3
*306 sample_p_4
*307 ANTENNA_clkgen\.delay_155ns_1\.enablebuffer_A
*308 ANTENNA_clkgen\.delay_155ns_1\.genblk1\[0\]\.control_invert_A
*309 ANTENNA_clkgen\.delay_155ns_1\.genblk1\[0\]\.dly_binary\.and_bypass_switch_A_N
*310 ANTENNA_clkgen\.delay_155ns_1\.genblk1\[0\]\.dly_binary\.out_mux_S
*311 ANTENNA_clkgen\.delay_155ns_1\.genblk1\[1\]\.control_invert_A
*312 ANTENNA_clkgen\.delay_155ns_1\.genblk1\[2\]\.control_invert_A
*313 ANTENNA_clkgen\.delay_155ns_1\.genblk1\[3\]\.control_invert_A
*314 ANTENNA_clkgen\.delay_155ns_1\.genblk1\[3\]\.dly_binary\.and_bypass_switch_A_N
*315 ANTENNA_clkgen\.delay_155ns_1\.genblk1\[3\]\.dly_binary\.out_mux_S
*316 ANTENNA_clkgen\.delay_155ns_1\.genblk1\[4\]\.control_invert_A
*317 ANTENNA_clkgen\.delay_155ns_1\.genblk1\[4\]\.dly_binary\.and_bypass_switch_A_N
*318 ANTENNA_clkgen\.delay_155ns_1\.genblk1\[4\]\.dly_binary\.out_mux_A0
*319 ANTENNA_clkgen\.delay_155ns_1\.genblk1\[4\]\.dly_binary\.out_mux_S
*320 ANTENNA_clkgen\.delay_155ns_2\.enablebuffer_A
*321 ANTENNA_clkgen\.delay_155ns_2\.genblk1\[0\]\.control_invert_A
*322 ANTENNA_clkgen\.delay_155ns_2\.genblk1\[0\]\.dly_binary\.and_bypass_switch_B
*323 ANTENNA_clkgen\.delay_155ns_2\.genblk1\[0\]\.dly_binary\.out_mux_A1
*324 ANTENNA_clkgen\.delay_155ns_2\.genblk1\[1\]\.control_invert_A
*325 ANTENNA_clkgen\.delay_155ns_2\.genblk1\[1\]\.dly_binary\.and_bypass_switch_A_N
*326 ANTENNA_clkgen\.delay_155ns_2\.genblk1\[1\]\.dly_binary\.out_mux_S
*327 ANTENNA_clkgen\.delay_155ns_2\.genblk1\[2\]\.control_invert_A
*328 ANTENNA_clkgen\.delay_155ns_2\.genblk1\[2\]\.dly_binary\.and_bypass_switch_A_N
*329 ANTENNA_clkgen\.delay_155ns_2\.genblk1\[2\]\.dly_binary\.out_mux_S
*330 ANTENNA_clkgen\.delay_155ns_2\.genblk1\[3\]\.control_invert_A
*331 ANTENNA_clkgen\.delay_155ns_2\.genblk1\[4\]\.control_invert_A
*332 ANTENNA_clkgen\.delay_155ns_2\.genblk1\[4\]\.dly_binary\.out_mux_A0
*333 ANTENNA_clkgen\.delay_155ns_3\.enablebuffer_A
*334 ANTENNA_clkgen\.delay_155ns_3\.genblk1\[0\]\.control_invert_A
*335 ANTENNA_clkgen\.delay_155ns_3\.genblk1\[1\]\.control_invert_A
*336 ANTENNA_clkgen\.delay_155ns_3\.genblk1\[2\]\.control_invert_A
*337 ANTENNA_clkgen\.delay_155ns_3\.genblk1\[3\]\.control_invert_A
*338 ANTENNA_clkgen\.delay_155ns_3\.genblk1\[4\]\.control_invert_A
*339 ANTENNA_edgedetect\.dly_315ns_1\.enablebuffer_A
*340 ANTENNA_edgedetect\.dly_315ns_1\.genblk1\[0\]\.bypass_enable_A
*341 ANTENNA_edgedetect\.dly_315ns_1\.genblk1\[0\]\.control_invert_A
*342 ANTENNA_edgedetect\.dly_315ns_1\.genblk1\[0\]\.dly_binary\.and_bypass_switch_A_N
*343 ANTENNA_edgedetect\.dly_315ns_1\.genblk1\[0\]\.dly_binary\.and_bypass_switch_B
*344 ANTENNA_edgedetect\.dly_315ns_1\.genblk1\[0\]\.dly_binary\.out_mux_A1
*345 ANTENNA_edgedetect\.dly_315ns_1\.genblk1\[0\]\.dly_binary\.out_mux_S
*346 ANTENNA_edgedetect\.dly_315ns_1\.genblk1\[1\]\.bypass_enable_A
*347 ANTENNA_edgedetect\.dly_315ns_1\.genblk1\[1\]\.control_invert_A
*348 ANTENNA_edgedetect\.dly_315ns_1\.genblk1\[1\]\.dly_binary\.and_bypass_switch_A_N
*349 ANTENNA_edgedetect\.dly_315ns_1\.genblk1\[1\]\.dly_binary\.out_mux_S
*350 ANTENNA_edgedetect\.dly_315ns_1\.genblk1\[2\]\.bypass_enable_A
*351 ANTENNA_edgedetect\.dly_315ns_1\.genblk1\[2\]\.control_invert_A
*352 ANTENNA_edgedetect\.dly_315ns_1\.genblk1\[2\]\.dly_binary\.and_bypass_switch_A_N
*353 ANTENNA_edgedetect\.dly_315ns_1\.genblk1\[2\]\.dly_binary\.out_mux_S
*354 ANTENNA_edgedetect\.dly_315ns_1\.genblk1\[3\]\.bypass_enable_A
*355 ANTENNA_edgedetect\.dly_315ns_1\.genblk1\[3\]\.control_invert_A
*356 ANTENNA_edgedetect\.dly_315ns_1\.genblk1\[3\]\.dly_binary\.and_bypass_switch_A_N
*357 ANTENNA_edgedetect\.dly_315ns_1\.genblk1\[3\]\.dly_binary\.out_mux_S
*358 ANTENNA_edgedetect\.dly_315ns_1\.genblk1\[4\]\.bypass_enable_A
*359 ANTENNA_edgedetect\.dly_315ns_1\.genblk1\[4\]\.control_invert_A
*360 ANTENNA_edgedetect\.dly_315ns_1\.genblk1\[4\]\.dly_binary\.and_bypass_switch_A_N
*361 ANTENNA_edgedetect\.dly_315ns_1\.genblk1\[4\]\.dly_binary\.out_mux_S
*362 ANTENNA_edgedetect\.dly_315ns_1\.genblk1\[5\]\.bypass_enable_A
*363 ANTENNA_edgedetect\.dly_315ns_1\.genblk1\[5\]\.control_invert_A
*364 ANTENNA_edgedetect\.dly_315ns_1\.genblk1\[5\]\.dly_binary\.and_bypass_switch_A_N
*365 ANTENNA_edgedetect\.dly_315ns_1\.genblk1\[5\]\.dly_binary\.out_mux_A0
*366 ANTENNA_edgedetect\.dly_315ns_1\.genblk1\[5\]\.dly_binary\.out_mux_S
*367 ANTENNA_edgedetect\.nor1_B_N
*368 ANTENNA_inbuf_1_A
*369 ANTENNA_inbuf_2_A
*370 ANTENNA_inbuf_3_A
*371 ANTENNA_outbuf_1_A
*372 ANTENNA_outbuf_2_A
*373 ANTENNA_sampledly01_A
*374 ANTENNA_sampledly02_A
*375 ANTENNA_sampledly03_A
*376 ANTENNA_sampledly04_A
*377 FILLER_0_121
*378 FILLER_0_125
*379 FILLER_0_15
*380 FILLER_0_152
*381 FILLER_0_156
*382 FILLER_0_164
*383 FILLER_0_173
*384 FILLER_0_182
*385 FILLER_0_187
*386 FILLER_0_192
*387 FILLER_0_199
*388 FILLER_0_205
*389 FILLER_0_211
*390 FILLER_0_218
*391 FILLER_0_230
*392 FILLER_0_244
*393 FILLER_0_249
*394 FILLER_0_261
*395 FILLER_0_275
*396 FILLER_0_280
*397 FILLER_0_288
*398 FILLER_0_29
*399 FILLER_0_294
*400 FILLER_0_3
*401 FILLER_0_300
*402 FILLER_0_306
*403 FILLER_0_311
*404 FILLER_0_315
*405 FILLER_0_319
*406 FILLER_0_32
*407 FILLER_0_60
*408 FILLER_0_63
*409 FILLER_0_90
*410 FILLER_0_94
*411 FILLER_10_124
*412 FILLER_10_153
*413 FILLER_10_156
*414 FILLER_10_16
*415 FILLER_10_164
*416 FILLER_10_171
*417 FILLER_10_200
*418 FILLER_10_209
*419 FILLER_10_215
*420 FILLER_10_218
*421 FILLER_10_245
*422 FILLER_10_274
*423 FILLER_10_278
*424 FILLER_10_280
*425 FILLER_10_29
*426 FILLER_10_3
*427 FILLER_10_307
*428 FILLER_10_313
*429 FILLER_10_319
*430 FILLER_10_32
*431 FILLER_10_43
*432 FILLER_10_56
*433 FILLER_10_87
*434 FILLER_10_9
*435 FILLER_10_94
*436 FILLER_10_98
*437 FILLER_11_122
*438 FILLER_11_125
*439 FILLER_11_152
*440 FILLER_11_158
*441 FILLER_11_184
*442 FILLER_11_187
*443 FILLER_11_218
*444 FILLER_11_227
*445 FILLER_11_234
*446 FILLER_11_241
*447 FILLER_11_247
*448 FILLER_11_249
*449 FILLER_11_276
*450 FILLER_11_282
*451 FILLER_11_3
*452 FILLER_11_30
*453 FILLER_11_308
*454 FILLER_11_311
*455 FILLER_11_315
*456 FILLER_11_319
*457 FILLER_11_34
*458 FILLER_11_60
*459 FILLER_11_63
*460 FILLER_11_74
*461 FILLER_11_84
*462 FILLER_11_93
*463 FILLER_12_124
*464 FILLER_12_153
*465 FILLER_12_156
*466 FILLER_12_167
*467 FILLER_12_174
*468 FILLER_12_19
*469 FILLER_12_203
*470 FILLER_12_212
*471 FILLER_12_216
*472 FILLER_12_218
*473 FILLER_12_245
*474 FILLER_12_252
*475 FILLER_12_259
*476 FILLER_12_266
*477 FILLER_12_273
*478 FILLER_12_280
*479 FILLER_12_284
*480 FILLER_12_29
*481 FILLER_12_3
*482 FILLER_12_317
*483 FILLER_12_32
*484 FILLER_12_36
*485 FILLER_12_62
*486 FILLER_12_9
*487 FILLER_12_91
*488 FILLER_12_94
*489 FILLER_12_98
*490 FILLER_13_110
*491 FILLER_13_122
*492 FILLER_13_125
*493 FILLER_13_131
*494 FILLER_13_141
*495 FILLER_13_172
*496 FILLER_13_181
*497 FILLER_13_185
*498 FILLER_13_187
*499 FILLER_13_214
*500 FILLER_13_220
*501 FILLER_13_246
*502 FILLER_13_249
*503 FILLER_13_276
*504 FILLER_13_282
*505 FILLER_13_3
*506 FILLER_13_308
*507 FILLER_13_311
*508 FILLER_13_315
*509 FILLER_13_319
*510 FILLER_13_36
*511 FILLER_13_49
*512 FILLER_13_59
*513 FILLER_13_63
*514 FILLER_13_69
*515 FILLER_13_7
*516 FILLER_13_76
*517 FILLER_13_84
*518 FILLER_14_122
*519 FILLER_14_153
*520 FILLER_14_156
*521 FILLER_14_16
*522 FILLER_14_164
*523 FILLER_14_195
*524 FILLER_14_204
*525 FILLER_14_213
*526 FILLER_14_218
*527 FILLER_14_245
*528 FILLER_14_274
*529 FILLER_14_278
*530 FILLER_14_280
*531 FILLER_14_29
*532 FILLER_14_3
*533 FILLER_14_307
*534 FILLER_14_313
*535 FILLER_14_319
*536 FILLER_14_32
*537 FILLER_14_36
*538 FILLER_14_62
*539 FILLER_14_91
*540 FILLER_14_94
*541 FILLER_15_122
*542 FILLER_15_125
*543 FILLER_15_154
*544 FILLER_15_183
*545 FILLER_15_187
*546 FILLER_15_191
*547 FILLER_15_220
*548 FILLER_15_229
*549 FILLER_15_238
*550 FILLER_15_245
*551 FILLER_15_249
*552 FILLER_15_276
*553 FILLER_15_3
*554 FILLER_15_305
*555 FILLER_15_309
*556 FILLER_15_31
*557 FILLER_15_311
*558 FILLER_15_315
*559 FILLER_15_319
*560 FILLER_15_60
*561 FILLER_15_63
*562 FILLER_15_67
*563 FILLER_15_93
*564 FILLER_16_106
*565 FILLER_16_116
*566 FILLER_16_122
*567 FILLER_16_148
*568 FILLER_16_154
*569 FILLER_16_156
*570 FILLER_16_16
*571 FILLER_16_164
*572 FILLER_16_168
*573 FILLER_16_194
*574 FILLER_16_203
*575 FILLER_16_212
*576 FILLER_16_216
*577 FILLER_16_218
*578 FILLER_16_245
*579 FILLER_16_274
*580 FILLER_16_278
*581 FILLER_16_280
*582 FILLER_16_29
*583 FILLER_16_3
*584 FILLER_16_307
*585 FILLER_16_317
*586 FILLER_16_32
*587 FILLER_16_59
*588 FILLER_16_65
*589 FILLER_16_91
*590 FILLER_16_94
*591 FILLER_17_122
*592 FILLER_17_125
*593 FILLER_17_153
*594 FILLER_17_182
*595 FILLER_17_187
*596 FILLER_17_214
*597 FILLER_17_243
*598 FILLER_17_247
*599 FILLER_17_249
*600 FILLER_17_276
*601 FILLER_17_3
*602 FILLER_17_305
*603 FILLER_17_309
*604 FILLER_17_31
*605 FILLER_17_311
*606 FILLER_17_315
*607 FILLER_17_319
*608 FILLER_17_60
*609 FILLER_17_63
*610 FILLER_17_67
*611 FILLER_17_93
*612 FILLER_18_124
*613 FILLER_18_15
*614 FILLER_18_153
*615 FILLER_18_156
*616 FILLER_18_164
*617 FILLER_18_197
*618 FILLER_18_206
*619 FILLER_18_215
*620 FILLER_18_218
*621 FILLER_18_245
*622 FILLER_18_274
*623 FILLER_18_278
*624 FILLER_18_280
*625 FILLER_18_29
*626 FILLER_18_3
*627 FILLER_18_309
*628 FILLER_18_316
*629 FILLER_18_32
*630 FILLER_18_36
*631 FILLER_18_62
*632 FILLER_18_91
*633 FILLER_18_94
*634 FILLER_18_98
*635 FILLER_19_122
*636 FILLER_19_125
*637 FILLER_19_137
*638 FILLER_19_144
*639 FILLER_19_148
*640 FILLER_19_174
*641 FILLER_19_183
*642 FILLER_19_187
*643 FILLER_19_191
*644 FILLER_19_217
*645 FILLER_19_246
*646 FILLER_19_249
*647 FILLER_19_276
*648 FILLER_19_282
*649 FILLER_19_3
*650 FILLER_19_308
*651 FILLER_19_31
*652 FILLER_19_311
*653 FILLER_19_315
*654 FILLER_19_319
*655 FILLER_19_60
*656 FILLER_19_63
*657 FILLER_19_67
*658 FILLER_19_93
*659 FILLER_1_122
*660 FILLER_1_125
*661 FILLER_1_137
*662 FILLER_1_166
*663 FILLER_1_176
*664 FILLER_1_183
*665 FILLER_1_187
*666 FILLER_1_192
*667 FILLER_1_199
*668 FILLER_1_206
*669 FILLER_1_212
*670 FILLER_1_218
*671 FILLER_1_224
*672 FILLER_1_230
*673 FILLER_1_236
*674 FILLER_1_242
*675 FILLER_1_249
*676 FILLER_1_253
*677 FILLER_1_259
*678 FILLER_1_265
*679 FILLER_1_271
*680 FILLER_1_277
*681 FILLER_1_283
*682 FILLER_1_289
*683 FILLER_1_295
*684 FILLER_1_3
*685 FILLER_1_301
*686 FILLER_1_307
*687 FILLER_1_31
*688 FILLER_1_311
*689 FILLER_1_319
*690 FILLER_1_60
*691 FILLER_1_63
*692 FILLER_1_67
*693 FILLER_1_93
*694 FILLER_20_121
*695 FILLER_20_125
*696 FILLER_20_15
*697 FILLER_20_153
*698 FILLER_20_156
*699 FILLER_20_184
*700 FILLER_20_187
*701 FILLER_20_214
*702 FILLER_20_218
*703 FILLER_20_246
*704 FILLER_20_249
*705 FILLER_20_261
*706 FILLER_20_275
*707 FILLER_20_280
*708 FILLER_20_29
*709 FILLER_20_292
*710 FILLER_20_3
*711 FILLER_20_306
*712 FILLER_20_311
*713 FILLER_20_315
*714 FILLER_20_319
*715 FILLER_20_32
*716 FILLER_20_59
*717 FILLER_20_63
*718 FILLER_20_90
*719 FILLER_20_94
*720 FILLER_2_124
*721 FILLER_2_153
*722 FILLER_2_156
*723 FILLER_2_16
*724 FILLER_2_161
*725 FILLER_2_165
*726 FILLER_2_191
*727 FILLER_2_200
*728 FILLER_2_207
*729 FILLER_2_214
*730 FILLER_2_218
*731 FILLER_2_222
*732 FILLER_2_228
*733 FILLER_2_234
*734 FILLER_2_240
*735 FILLER_2_246
*736 FILLER_2_252
*737 FILLER_2_258
*738 FILLER_2_264
*739 FILLER_2_270
*740 FILLER_2_276
*741 FILLER_2_280
*742 FILLER_2_284
*743 FILLER_2_29
*744 FILLER_2_290
*745 FILLER_2_296
*746 FILLER_2_3
*747 FILLER_2_302
*748 FILLER_2_308
*749 FILLER_2_314
*750 FILLER_2_32
*751 FILLER_2_59
*752 FILLER_2_65
*753 FILLER_2_91
*754 FILLER_2_94
*755 FILLER_2_98
*756 FILLER_3_122
*757 FILLER_3_125
*758 FILLER_3_133
*759 FILLER_3_143
*760 FILLER_3_150
*761 FILLER_3_179
*762 FILLER_3_185
*763 FILLER_3_187
*764 FILLER_3_194
*765 FILLER_3_203
*766 FILLER_3_212
*767 FILLER_3_219
*768 FILLER_3_225
*769 FILLER_3_231
*770 FILLER_3_237
*771 FILLER_3_243
*772 FILLER_3_247
*773 FILLER_3_249
*774 FILLER_3_276
*775 FILLER_3_282
*776 FILLER_3_288
*777 FILLER_3_294
*778 FILLER_3_3
*779 FILLER_3_30
*780 FILLER_3_300
*781 FILLER_3_306
*782 FILLER_3_311
*783 FILLER_3_315
*784 FILLER_3_319
*785 FILLER_3_34
*786 FILLER_3_60
*787 FILLER_3_63
*788 FILLER_3_67
*789 FILLER_3_93
*790 FILLER_4_107
*791 FILLER_4_113
*792 FILLER_4_142
*793 FILLER_4_152
*794 FILLER_4_156
*795 FILLER_4_16
*796 FILLER_4_164
*797 FILLER_4_174
*798 FILLER_4_203
*799 FILLER_4_212
*800 FILLER_4_216
*801 FILLER_4_218
*802 FILLER_4_245
*803 FILLER_4_274
*804 FILLER_4_278
*805 FILLER_4_280
*806 FILLER_4_284
*807 FILLER_4_288
*808 FILLER_4_29
*809 FILLER_4_3