** sch_path: /foss/designs/SKY130_SAR-ADC/xschem/adc_array_matrix/adc_array_matrix_8Cap_12Bit.sch
.subckt adc_array_matrix_8Cap_12Bit VDD VSS sample sample_n col_n[15] col_n[14] col_n[13] col_n[12]
+ col_n[11] col_n[10] col_n[9] col_n[8] col_n[7] col_n[6] col_n[5] col_n[4] col_n[3] col_n[2] col_n[1] col_n[0]
+ colon_n[15] colon_n[14] colon_n[13] colon_n[12] colon_n[11] colon_n[10] colon_n[9] colon_n[8] colon_n[7]
+ colon_n[6] colon_n[5] colon_n[4] colon_n[3] colon_n[2] colon_n[1] colon_n[0] row_n[31] row_n[30] row_n[29]
+ row_n[28] row_n[27] row_n[26] row_n[25] row_n[24] row_n[23] row_n[22] row_n[21] row_n[20] row_n[19] row_n[18]
+ row_n[17] row_n[16] row_n[15] row_n[14] row_n[13] row_n[12] row_n[11] row_n[10] row_n[9] row_n[8] row_n[7]
+ row_n[6] row_n[5] row_n[4] row_n[3] row_n[2] row_n[1] row_n[0] vcom en_n_bit[2] en_n_bit[1] en_n_bit[0]
+ analog_in sw sw_n ctop
*.PININFO VDD:B VSS:B sample:I sample_n:I col_n[15:0]:I colon_n[15:0]:I row_n[31:0]:I vcom:B
*+ en_n_bit[2:0]:I analog_in:I sw:I sw_n:I ctop:B
x1 VDD ctop vcom col_n[0] colon_n[0] net2 net1 VSS row_n[0] adc_array_wafflecap_8_8
x2 VDD ctop vcom col_n[0] colon_n[0] net2 net1 VSS row_n[1] adc_array_wafflecap_8_8
x3 VDD ctop vcom col_n[0] colon_n[0] net2 net1 VSS row_n[2] adc_array_wafflecap_8_8
x4 VDD ctop vcom col_n[0] colon_n[0] net2 net1 VSS row_n[3] adc_array_wafflecap_8_8
x5 VDD ctop vcom col_n[0] colon_n[0] net2 net1 VSS row_n[4] adc_array_wafflecap_8_8
x6 VDD ctop vcom col_n[0] colon_n[0] net2 net1 VSS row_n[5] adc_array_wafflecap_8_8
x7 VDD ctop vcom col_n[0] colon_n[0] net2 net1 VSS row_n[6] adc_array_wafflecap_8_8
x8 VDD ctop vcom col_n[0] colon_n[0] net2 net1 VSS row_n[7] adc_array_wafflecap_8_8
x9 VDD ctop vcom col_n[0] colon_n[0] net2 net1 VSS row_n[8] adc_array_wafflecap_8_8
x10 VDD ctop vcom col_n[0] colon_n[0] net2 net1 VSS row_n[9] adc_array_wafflecap_8_8
x11 VDD ctop vcom col_n[0] colon_n[0] net2 net1 VSS row_n[10] adc_array_wafflecap_8_8
x12 VDD ctop vcom col_n[0] colon_n[0] net2 net1 VSS row_n[11] adc_array_wafflecap_8_8
x13 VDD ctop vcom col_n[0] colon_n[0] net2 net1 VSS row_n[12] adc_array_wafflecap_8_8
x14 VDD ctop vcom col_n[0] colon_n[0] net2 net1 VSS row_n[13] adc_array_wafflecap_8_8
x15 VDD ctop vcom col_n[0] colon_n[0] net2 net1 VSS row_n[14] adc_array_wafflecap_8_8
x16 VDD ctop vcom col_n[0] colon_n[0] net2 net1 VSS row_n[15] adc_array_wafflecap_8_8
x17 VDD ctop vcom col_n[0] colon_n[0] net2 net1 VSS row_n[16] adc_array_wafflecap_8_8
x18 VDD ctop vcom col_n[0] colon_n[0] net2 net1 VSS row_n[17] adc_array_wafflecap_8_8
x19 VDD ctop vcom col_n[0] colon_n[0] net2 net1 VSS row_n[18] adc_array_wafflecap_8_8
x20 VDD ctop vcom col_n[0] colon_n[0] net2 net1 VSS row_n[19] adc_array_wafflecap_8_8
x21 VDD ctop vcom col_n[0] colon_n[0] net2 net1 VSS row_n[20] adc_array_wafflecap_8_8
x22 VDD ctop vcom col_n[0] colon_n[0] net2 net1 VSS row_n[21] adc_array_wafflecap_8_8
x23 VDD ctop vcom col_n[0] colon_n[0] net2 net1 VSS row_n[22] adc_array_wafflecap_8_8
x24 VDD ctop vcom col_n[0] colon_n[0] net2 net1 VSS row_n[23] adc_array_wafflecap_8_8
x25 VDD ctop vcom col_n[0] colon_n[0] net2 net1 VSS row_n[24] adc_array_wafflecap_8_8
x26 VDD ctop vcom col_n[0] colon_n[0] net2 net1 VSS row_n[25] adc_array_wafflecap_8_8
x27 VDD ctop vcom col_n[0] colon_n[0] net2 net1 VSS row_n[26] adc_array_wafflecap_8_8
x28 VDD ctop vcom col_n[0] colon_n[0] net2 net1 VSS row_n[27] adc_array_wafflecap_8_8
x29 VDD ctop vcom col_n[0] colon_n[0] net2 net1 VSS row_n[28] adc_array_wafflecap_8_8
x30 VDD ctop vcom col_n[0] colon_n[0] net2 net1 VSS row_n[29] adc_array_wafflecap_8_8
x31 VDD ctop vcom col_n[0] colon_n[0] net2 net1 VSS row_n[30] adc_array_wafflecap_8_8
x32 VDD ctop vcom col_n[0] colon_n[0] net2 net1 VSS row_n[31] adc_array_wafflecap_8_8
x33 VDD ctop vcom col_n[1] colon_n[1] net4 net3 VSS row_n[0] adc_array_wafflecap_8_8
x34 VDD ctop vcom col_n[1] colon_n[1] net4 net3 VSS row_n[1] adc_array_wafflecap_8_8
x35 VDD ctop vcom col_n[1] colon_n[1] net4 net3 VSS row_n[2] adc_array_wafflecap_8_8
x36 VDD ctop vcom col_n[1] colon_n[1] net4 net3 VSS row_n[3] adc_array_wafflecap_8_8
x37 VDD ctop vcom col_n[1] colon_n[1] net4 net3 VSS row_n[4] adc_array_wafflecap_8_8
x38 VDD ctop vcom col_n[1] colon_n[1] net4 net3 VSS row_n[5] adc_array_wafflecap_8_8
x39 VDD ctop vcom col_n[1] colon_n[1] net4 net3 VSS row_n[6] adc_array_wafflecap_8_8
x40 VDD ctop vcom col_n[1] colon_n[1] net4 net3 VSS row_n[7] adc_array_wafflecap_8_8
x41 VDD ctop vcom col_n[1] colon_n[1] net4 net3 VSS row_n[8] adc_array_wafflecap_8_8
x42 VDD ctop vcom col_n[1] colon_n[1] net4 net3 VSS row_n[9] adc_array_wafflecap_8_8
x43 VDD ctop vcom col_n[1] colon_n[1] net4 net3 VSS row_n[10] adc_array_wafflecap_8_8
x44 VDD ctop vcom col_n[1] colon_n[1] net4 net3 VSS row_n[11] adc_array_wafflecap_8_8
x45 VDD ctop vcom col_n[1] colon_n[1] net4 net3 VSS row_n[12] adc_array_wafflecap_8_8
x46 VDD ctop vcom col_n[1] colon_n[1] net4 net3 VSS row_n[13] adc_array_wafflecap_8_8
x47 VDD ctop vcom col_n[1] colon_n[1] net4 net3 VSS row_n[14] adc_array_wafflecap_8_8
x48 VDD ctop vcom col_n[1] colon_n[1] net4 net3 VSS row_n[15] adc_array_wafflecap_8_8
x49 VDD ctop vcom col_n[1] colon_n[1] net4 net3 VSS row_n[16] adc_array_wafflecap_8_8
x50 VDD ctop vcom col_n[1] colon_n[1] net4 net3 VSS row_n[17] adc_array_wafflecap_8_8
x51 VDD ctop vcom col_n[1] colon_n[1] net4 net3 VSS row_n[18] adc_array_wafflecap_8_8
x52 VDD ctop vcom col_n[1] colon_n[1] net4 net3 VSS row_n[19] adc_array_wafflecap_8_8
x53 VDD ctop vcom col_n[1] colon_n[1] net4 net3 VSS row_n[20] adc_array_wafflecap_8_8
x54 VDD ctop vcom col_n[1] colon_n[1] net4 net3 VSS row_n[21] adc_array_wafflecap_8_8
x55 VDD ctop vcom col_n[1] colon_n[1] net4 net3 VSS row_n[22] adc_array_wafflecap_8_8
x56 VDD ctop vcom col_n[1] colon_n[1] net4 net3 VSS row_n[23] adc_array_wafflecap_8_8
x57 VDD ctop vcom col_n[1] colon_n[1] net4 net3 VSS row_n[24] adc_array_wafflecap_8_8
x58 VDD ctop vcom col_n[1] colon_n[1] net4 net3 VSS row_n[25] adc_array_wafflecap_8_8
x59 VDD ctop vcom col_n[1] colon_n[1] net4 net3 VSS row_n[26] adc_array_wafflecap_8_8
x60 VDD ctop vcom col_n[1] colon_n[1] net4 net3 VSS row_n[27] adc_array_wafflecap_8_8
x61 VDD ctop vcom col_n[1] colon_n[1] net4 net3 VSS row_n[28] adc_array_wafflecap_8_8
x62 VDD ctop vcom col_n[1] colon_n[1] net4 net3 VSS row_n[29] adc_array_wafflecap_8_8
x63 VDD ctop vcom col_n[1] colon_n[1] net4 net3 VSS row_n[30] adc_array_wafflecap_8_8
x64 VDD ctop vcom col_n[1] colon_n[1] net4 net3 VSS row_n[31] adc_array_wafflecap_8_8
x65 VDD ctop vcom col_n[2] colon_n[2] net6 net5 VSS row_n[0] adc_array_wafflecap_8_8
x66 VDD ctop vcom col_n[2] colon_n[2] net6 net5 VSS row_n[1] adc_array_wafflecap_8_8
x67 VDD ctop vcom col_n[2] colon_n[2] net6 net5 VSS row_n[2] adc_array_wafflecap_8_8
x68 VDD ctop vcom col_n[2] colon_n[2] net6 net5 VSS row_n[3] adc_array_wafflecap_8_8
x69 VDD ctop vcom col_n[2] colon_n[2] net6 net5 VSS row_n[4] adc_array_wafflecap_8_8
x70 VDD ctop vcom col_n[2] colon_n[2] net6 net5 VSS row_n[5] adc_array_wafflecap_8_8
x71 VDD ctop vcom col_n[2] colon_n[2] net6 net5 VSS row_n[6] adc_array_wafflecap_8_8
x72 VDD ctop vcom col_n[2] colon_n[2] net6 net5 VSS row_n[7] adc_array_wafflecap_8_8
x73 VDD ctop vcom col_n[2] colon_n[2] net6 net5 VSS row_n[8] adc_array_wafflecap_8_8
x74 VDD ctop vcom col_n[2] colon_n[2] net6 net5 VSS row_n[9] adc_array_wafflecap_8_8
x75 VDD ctop vcom col_n[2] colon_n[2] net6 net5 VSS row_n[10] adc_array_wafflecap_8_8
x76 VDD ctop vcom col_n[2] colon_n[2] net6 net5 VSS row_n[11] adc_array_wafflecap_8_8
x77 VDD ctop vcom col_n[2] colon_n[2] net6 net5 VSS row_n[12] adc_array_wafflecap_8_8
x78 VDD ctop vcom col_n[2] colon_n[2] net6 net5 VSS row_n[13] adc_array_wafflecap_8_8
x79 VDD ctop vcom col_n[2] colon_n[2] net6 net5 VSS row_n[14] adc_array_wafflecap_8_8
x80 VDD ctop vcom col_n[2] colon_n[2] net6 net5 VSS row_n[15] adc_array_wafflecap_8_8
x81 VDD ctop vcom col_n[2] colon_n[2] net6 net5 VSS row_n[16] adc_array_wafflecap_8_8
x82 VDD ctop vcom col_n[2] colon_n[2] net6 net5 VSS row_n[17] adc_array_wafflecap_8_8
x83 VDD ctop vcom col_n[2] colon_n[2] net6 net5 VSS row_n[18] adc_array_wafflecap_8_8
x84 VDD ctop vcom col_n[2] colon_n[2] net6 net5 VSS row_n[19] adc_array_wafflecap_8_8
x85 VDD ctop vcom col_n[2] colon_n[2] net6 net5 VSS row_n[20] adc_array_wafflecap_8_8
x86 VDD ctop vcom col_n[2] colon_n[2] net6 net5 VSS row_n[21] adc_array_wafflecap_8_8
x87 VDD ctop vcom col_n[2] colon_n[2] net6 net5 VSS row_n[22] adc_array_wafflecap_8_8
x88 VDD ctop vcom col_n[2] colon_n[2] net6 net5 VSS row_n[23] adc_array_wafflecap_8_8
x89 VDD ctop vcom col_n[2] colon_n[2] net6 net5 VSS row_n[24] adc_array_wafflecap_8_8
x90 VDD ctop vcom col_n[2] colon_n[2] net6 net5 VSS row_n[25] adc_array_wafflecap_8_8
x91 VDD ctop vcom col_n[2] colon_n[2] net6 net5 VSS row_n[26] adc_array_wafflecap_8_8
x92 VDD ctop vcom col_n[2] colon_n[2] net6 net5 VSS row_n[27] adc_array_wafflecap_8_8
x93 VDD ctop vcom col_n[2] colon_n[2] net6 net5 VSS row_n[28] adc_array_wafflecap_8_8
x94 VDD ctop vcom col_n[2] colon_n[2] net6 net5 VSS row_n[29] adc_array_wafflecap_8_8
x95 VDD ctop vcom col_n[2] colon_n[2] net6 net5 VSS row_n[30] adc_array_wafflecap_8_8
x96 VDD ctop vcom col_n[2] colon_n[2] net6 net5 VSS row_n[31] adc_array_wafflecap_8_8
x97 VDD ctop vcom col_n[3] colon_n[3] net8 net7 VSS row_n[0] adc_array_wafflecap_8_8
x98 VDD ctop vcom col_n[3] colon_n[3] net8 net7 VSS row_n[1] adc_array_wafflecap_8_8
x99 VDD ctop vcom col_n[3] colon_n[3] net8 net7 VSS row_n[2] adc_array_wafflecap_8_8
x100 VDD ctop vcom col_n[3] colon_n[3] net8 net7 VSS row_n[3] adc_array_wafflecap_8_8
x101 VDD ctop vcom col_n[3] colon_n[3] net8 net7 VSS row_n[4] adc_array_wafflecap_8_8
x102 VDD ctop vcom col_n[3] colon_n[3] net8 net7 VSS row_n[5] adc_array_wafflecap_8_8
x103 VDD ctop vcom col_n[3] colon_n[3] net8 net7 VSS row_n[6] adc_array_wafflecap_8_8
x104 VDD ctop vcom col_n[3] colon_n[3] net8 net7 VSS row_n[7] adc_array_wafflecap_8_8
x105 VDD ctop vcom col_n[3] colon_n[3] net8 net7 VSS row_n[8] adc_array_wafflecap_8_8
x106 VDD ctop vcom col_n[3] colon_n[3] net8 net7 VSS row_n[9] adc_array_wafflecap_8_8
x107 VDD ctop vcom col_n[3] colon_n[3] net8 net7 VSS row_n[10] adc_array_wafflecap_8_8
x108 VDD ctop vcom col_n[3] colon_n[3] net8 net7 VSS row_n[11] adc_array_wafflecap_8_8
x109 VDD ctop vcom col_n[3] colon_n[3] net8 net7 VSS row_n[12] adc_array_wafflecap_8_8
x110 VDD ctop vcom col_n[3] colon_n[3] net8 net7 VSS row_n[13] adc_array_wafflecap_8_8
x111 VDD ctop vcom col_n[3] colon_n[3] net8 net7 VSS row_n[14] adc_array_wafflecap_8_8
x112 VDD ctop vcom col_n[3] colon_n[3] net8 net7 VSS row_n[15] adc_array_wafflecap_8_8
x113 VDD ctop vcom col_n[3] colon_n[3] net8 net7 VSS row_n[16] adc_array_wafflecap_8_8
x114 VDD ctop vcom col_n[3] colon_n[3] net8 net7 VSS row_n[17] adc_array_wafflecap_8_8
x115 VDD ctop vcom col_n[3] colon_n[3] net8 net7 VSS row_n[18] adc_array_wafflecap_8_8
x116 VDD ctop vcom col_n[3] colon_n[3] net8 net7 VSS row_n[19] adc_array_wafflecap_8_8
x117 VDD ctop vcom col_n[3] colon_n[3] net8 net7 VSS row_n[20] adc_array_wafflecap_8_8
x118 VDD ctop vcom col_n[3] colon_n[3] net8 net7 VSS row_n[21] adc_array_wafflecap_8_8
x119 VDD ctop vcom col_n[3] colon_n[3] net8 net7 VSS row_n[22] adc_array_wafflecap_8_8
x120 VDD ctop vcom col_n[3] colon_n[3] net8 net7 VSS row_n[23] adc_array_wafflecap_8_8
x121 VDD ctop vcom col_n[3] colon_n[3] net8 net7 VSS row_n[24] adc_array_wafflecap_8_8
x122 VDD ctop vcom col_n[3] colon_n[3] net8 net7 VSS row_n[25] adc_array_wafflecap_8_8
x123 VDD ctop vcom col_n[3] colon_n[3] net8 net7 VSS row_n[26] adc_array_wafflecap_8_8
x124 VDD ctop vcom col_n[3] colon_n[3] net8 net7 VSS row_n[27] adc_array_wafflecap_8_8
x125 VDD ctop vcom col_n[3] colon_n[3] net8 net7 VSS row_n[28] adc_array_wafflecap_8_8
x126 VDD ctop vcom col_n[3] colon_n[3] net8 net7 VSS row_n[29] adc_array_wafflecap_8_8
x127 VDD ctop vcom col_n[3] colon_n[3] net8 net7 VSS row_n[30] adc_array_wafflecap_8_8
x128 VDD ctop vcom col_n[3] colon_n[3] net8 net7 VSS row_n[31] adc_array_wafflecap_8_8
x129 VDD ctop vcom col_n[4] colon_n[4] net10 net9 VSS row_n[0] adc_array_wafflecap_8_8
x130 VDD ctop vcom col_n[4] colon_n[4] net10 net9 VSS row_n[1] adc_array_wafflecap_8_8
x131 VDD ctop vcom col_n[4] colon_n[4] net10 net9 VSS row_n[2] adc_array_wafflecap_8_8
x132 VDD ctop vcom col_n[4] colon_n[4] net10 net9 VSS row_n[3] adc_array_wafflecap_8_8
x133 VDD ctop vcom col_n[4] colon_n[4] net10 net9 VSS row_n[4] adc_array_wafflecap_8_8
x134 VDD ctop vcom col_n[4] colon_n[4] net10 net9 VSS row_n[5] adc_array_wafflecap_8_8
x135 VDD ctop vcom col_n[4] colon_n[4] net10 net9 VSS row_n[6] adc_array_wafflecap_8_8
x136 VDD ctop vcom col_n[4] colon_n[4] net10 net9 VSS row_n[7] adc_array_wafflecap_8_8
x137 VDD ctop vcom col_n[4] colon_n[4] net10 net9 VSS row_n[8] adc_array_wafflecap_8_8
x138 VDD ctop vcom col_n[4] colon_n[4] net10 net9 VSS row_n[9] adc_array_wafflecap_8_8
x139 VDD ctop vcom col_n[4] colon_n[4] net10 net9 VSS row_n[10] adc_array_wafflecap_8_8
x140 VDD ctop vcom col_n[4] colon_n[4] net10 net9 VSS row_n[11] adc_array_wafflecap_8_8
x141 VDD ctop vcom col_n[4] colon_n[4] net10 net9 VSS row_n[12] adc_array_wafflecap_8_8
x142 VDD ctop vcom col_n[4] colon_n[4] net10 net9 VSS row_n[13] adc_array_wafflecap_8_8
x143 VDD ctop vcom col_n[4] colon_n[4] net10 net9 VSS row_n[14] adc_array_wafflecap_8_8
x144 VDD ctop vcom col_n[4] colon_n[4] net10 net9 VSS row_n[15] adc_array_wafflecap_8_8
x145 VDD ctop vcom col_n[4] colon_n[4] net10 net9 VSS row_n[16] adc_array_wafflecap_8_8
x146 VDD ctop vcom col_n[4] colon_n[4] net10 net9 VSS row_n[17] adc_array_wafflecap_8_8
x147 VDD ctop vcom col_n[4] colon_n[4] net10 net9 VSS row_n[18] adc_array_wafflecap_8_8
x148 VDD ctop vcom col_n[4] colon_n[4] net10 net9 VSS row_n[19] adc_array_wafflecap_8_8
x149 VDD ctop vcom col_n[4] colon_n[4] net10 net9 VSS row_n[20] adc_array_wafflecap_8_8
x150 VDD ctop vcom col_n[4] colon_n[4] net10 net9 VSS row_n[21] adc_array_wafflecap_8_8
x151 VDD ctop vcom col_n[4] colon_n[4] net10 net9 VSS row_n[22] adc_array_wafflecap_8_8
x152 VDD ctop vcom col_n[4] colon_n[4] net10 net9 VSS row_n[23] adc_array_wafflecap_8_8
x153 VDD ctop vcom col_n[4] colon_n[4] net10 net9 VSS row_n[24] adc_array_wafflecap_8_8
x154 VDD ctop vcom col_n[4] colon_n[4] net10 net9 VSS row_n[25] adc_array_wafflecap_8_8
x155 VDD ctop vcom col_n[4] colon_n[4] net10 net9 VSS row_n[26] adc_array_wafflecap_8_8
x156 VDD ctop vcom col_n[4] colon_n[4] net10 net9 VSS row_n[27] adc_array_wafflecap_8_8
x157 VDD ctop vcom col_n[4] colon_n[4] net10 net9 VSS row_n[28] adc_array_wafflecap_8_8
x158 VDD ctop vcom col_n[4] colon_n[4] net10 net9 VSS row_n[29] adc_array_wafflecap_8_8
x159 VDD ctop vcom col_n[4] colon_n[4] net10 net9 VSS row_n[30] adc_array_wafflecap_8_8
x160 VDD ctop vcom col_n[4] colon_n[4] net10 net9 VSS row_n[31] adc_array_wafflecap_8_8
x161 VDD ctop vcom col_n[5] colon_n[5] net12 net11 VSS row_n[0] adc_array_wafflecap_8_8
x162 VDD ctop vcom col_n[5] colon_n[5] net12 net11 VSS row_n[1] adc_array_wafflecap_8_8
x163 VDD ctop vcom col_n[5] colon_n[5] net12 net11 VSS row_n[2] adc_array_wafflecap_8_8
x164 VDD ctop vcom col_n[5] colon_n[5] net12 net11 VSS row_n[3] adc_array_wafflecap_8_8
x165 VDD ctop vcom col_n[5] colon_n[5] net12 net11 VSS row_n[4] adc_array_wafflecap_8_8
x166 VDD ctop vcom col_n[5] colon_n[5] net12 net11 VSS row_n[5] adc_array_wafflecap_8_8
x167 VDD ctop vcom col_n[5] colon_n[5] net12 net11 VSS row_n[6] adc_array_wafflecap_8_8
x168 VDD ctop vcom col_n[5] colon_n[5] net12 net11 VSS row_n[7] adc_array_wafflecap_8_8
x169 VDD ctop vcom col_n[5] colon_n[5] net12 net11 VSS row_n[8] adc_array_wafflecap_8_8
x170 VDD ctop vcom col_n[5] colon_n[5] net12 net11 VSS row_n[9] adc_array_wafflecap_8_8
x171 VDD ctop vcom col_n[5] colon_n[5] net12 net11 VSS row_n[10] adc_array_wafflecap_8_8
x172 VDD ctop vcom col_n[5] colon_n[5] net12 net11 VSS row_n[11] adc_array_wafflecap_8_8
x173 VDD ctop vcom col_n[5] colon_n[5] net12 net11 VSS row_n[12] adc_array_wafflecap_8_8
x174 VDD ctop vcom col_n[5] colon_n[5] net12 net11 VSS row_n[13] adc_array_wafflecap_8_8
x175 VDD ctop vcom col_n[5] colon_n[5] net12 net11 VSS row_n[14] adc_array_wafflecap_8_8
x176 VDD ctop vcom col_n[5] colon_n[5] net12 net11 VSS row_n[15] adc_array_wafflecap_8_8
x177 VDD ctop vcom col_n[5] colon_n[5] net12 net11 VSS row_n[16] adc_array_wafflecap_8_8
x178 VDD ctop vcom col_n[5] colon_n[5] net12 net11 VSS row_n[17] adc_array_wafflecap_8_8
x179 VDD ctop vcom col_n[5] colon_n[5] net12 net11 VSS row_n[18] adc_array_wafflecap_8_8
x180 VDD ctop vcom col_n[5] colon_n[5] net12 net11 VSS row_n[19] adc_array_wafflecap_8_8
x181 VDD ctop vcom col_n[5] colon_n[5] net12 net11 VSS row_n[20] adc_array_wafflecap_8_8
x182 VDD ctop vcom col_n[5] colon_n[5] net12 net11 VSS row_n[21] adc_array_wafflecap_8_8
x183 VDD ctop vcom col_n[5] colon_n[5] net12 net11 VSS row_n[22] adc_array_wafflecap_8_8
x184 VDD ctop vcom col_n[5] colon_n[5] net12 net11 VSS row_n[23] adc_array_wafflecap_8_8
x185 VDD ctop vcom col_n[5] colon_n[5] net12 net11 VSS row_n[24] adc_array_wafflecap_8_8
x186 VDD ctop vcom col_n[5] colon_n[5] net12 net11 VSS row_n[25] adc_array_wafflecap_8_8
x187 VDD ctop vcom col_n[5] colon_n[5] net12 net11 VSS row_n[26] adc_array_wafflecap_8_8
x188 VDD ctop vcom col_n[5] colon_n[5] net12 net11 VSS row_n[27] adc_array_wafflecap_8_8
x189 VDD ctop vcom col_n[5] colon_n[5] net12 net11 VSS row_n[28] adc_array_wafflecap_8_8
x190 VDD ctop vcom col_n[5] colon_n[5] net12 net11 VSS row_n[29] adc_array_wafflecap_8_8
x191 VDD ctop vcom col_n[5] colon_n[5] net12 net11 VSS row_n[30] adc_array_wafflecap_8_8
x192 VDD ctop vcom col_n[5] colon_n[5] net12 net11 VSS row_n[31] adc_array_wafflecap_8_8
x193 VDD ctop vcom col_n[6] colon_n[6] net14 net13 VSS row_n[0] adc_array_wafflecap_8_8
x194 VDD ctop vcom col_n[6] colon_n[6] net14 net13 VSS row_n[1] adc_array_wafflecap_8_8
x195 VDD ctop vcom col_n[6] colon_n[6] net14 net13 VSS row_n[2] adc_array_wafflecap_8_8
x196 VDD ctop vcom col_n[6] colon_n[6] net14 net13 VSS row_n[3] adc_array_wafflecap_8_8
x197 VDD ctop vcom col_n[6] colon_n[6] net14 net13 VSS row_n[4] adc_array_wafflecap_8_8
x198 VDD ctop vcom col_n[6] colon_n[6] net14 net13 VSS row_n[5] adc_array_wafflecap_8_8
x199 VDD ctop vcom col_n[6] colon_n[6] net14 net13 VSS row_n[6] adc_array_wafflecap_8_8
x200 VDD ctop vcom col_n[6] colon_n[6] net14 net13 VSS row_n[7] adc_array_wafflecap_8_8
x201 VDD ctop vcom col_n[6] colon_n[6] net14 net13 VSS row_n[8] adc_array_wafflecap_8_8
x202 VDD ctop vcom col_n[6] colon_n[6] net14 net13 VSS row_n[9] adc_array_wafflecap_8_8
x203 VDD ctop vcom col_n[6] colon_n[6] net14 net13 VSS row_n[10] adc_array_wafflecap_8_8
x204 VDD ctop vcom col_n[6] colon_n[6] net14 net13 VSS row_n[11] adc_array_wafflecap_8_8
x205 VDD ctop vcom col_n[6] colon_n[6] net14 net13 VSS row_n[12] adc_array_wafflecap_8_8
x206 VDD ctop vcom col_n[6] colon_n[6] net14 net13 VSS row_n[13] adc_array_wafflecap_8_8
x207 VDD ctop vcom col_n[6] colon_n[6] net14 net13 VSS row_n[14] adc_array_wafflecap_8_8
x208 VDD ctop vcom col_n[6] colon_n[6] net14 net13 VSS row_n[15] adc_array_wafflecap_8_8
x209 VDD ctop vcom col_n[6] colon_n[6] net14 net13 VSS row_n[16] adc_array_wafflecap_8_8
x210 VDD ctop vcom col_n[6] colon_n[6] net14 net13 VSS row_n[17] adc_array_wafflecap_8_8
x211 VDD ctop vcom col_n[6] colon_n[6] net14 net13 VSS row_n[18] adc_array_wafflecap_8_8
x212 VDD ctop vcom col_n[6] colon_n[6] net14 net13 VSS row_n[19] adc_array_wafflecap_8_8
x213 VDD ctop vcom col_n[6] colon_n[6] net14 net13 VSS row_n[20] adc_array_wafflecap_8_8
x214 VDD ctop vcom col_n[6] colon_n[6] net14 net13 VSS row_n[21] adc_array_wafflecap_8_8
x215 VDD ctop vcom col_n[6] colon_n[6] net14 net13 VSS row_n[22] adc_array_wafflecap_8_8
x216 VDD ctop vcom col_n[6] colon_n[6] net14 net13 VSS row_n[23] adc_array_wafflecap_8_8
x217 VDD ctop vcom col_n[6] colon_n[6] net14 net13 VSS row_n[24] adc_array_wafflecap_8_8
x218 VDD ctop vcom col_n[6] colon_n[6] net14 net13 VSS row_n[25] adc_array_wafflecap_8_8
x219 VDD ctop vcom col_n[6] colon_n[6] net14 net13 VSS row_n[26] adc_array_wafflecap_8_8
x220 VDD ctop vcom col_n[6] colon_n[6] net14 net13 VSS row_n[27] adc_array_wafflecap_8_8
x221 VDD ctop vcom col_n[6] colon_n[6] net14 net13 VSS row_n[28] adc_array_wafflecap_8_8
x222 VDD ctop vcom col_n[6] colon_n[6] net14 net13 VSS row_n[29] adc_array_wafflecap_8_8
x223 VDD ctop vcom col_n[6] colon_n[6] net14 net13 VSS row_n[30] adc_array_wafflecap_8_8
x224 VDD ctop vcom col_n[6] colon_n[6] net14 net13 VSS row_n[31] adc_array_wafflecap_8_8
x225 VDD ctop vcom col_n[7] colon_n[7] net16 net15 VSS row_n[0] adc_array_wafflecap_8_8
x226 VDD ctop vcom col_n[7] colon_n[7] net16 net15 VSS row_n[1] adc_array_wafflecap_8_8
x227 VDD ctop vcom col_n[7] colon_n[7] net16 net15 VSS row_n[2] adc_array_wafflecap_8_8
x228 VDD ctop vcom col_n[7] colon_n[7] net16 net15 VSS row_n[3] adc_array_wafflecap_8_8
x229 VDD ctop vcom col_n[7] colon_n[7] net16 net15 VSS row_n[4] adc_array_wafflecap_8_8
x230 VDD ctop vcom col_n[7] colon_n[7] net16 net15 VSS row_n[5] adc_array_wafflecap_8_8
x231 VDD ctop vcom col_n[7] colon_n[7] net16 net15 VSS row_n[6] adc_array_wafflecap_8_8
x232 VDD ctop vcom col_n[7] colon_n[7] net16 net15 VSS row_n[7] adc_array_wafflecap_8_8
x233 VDD ctop vcom col_n[7] colon_n[7] net16 net15 VSS row_n[8] adc_array_wafflecap_8_8
x234 VDD ctop vcom col_n[7] colon_n[7] net16 net15 VSS row_n[9] adc_array_wafflecap_8_8
x235 VDD ctop vcom col_n[7] colon_n[7] net16 net15 VSS row_n[10] adc_array_wafflecap_8_8
x236 VDD ctop vcom col_n[7] colon_n[7] net16 net15 VSS row_n[11] adc_array_wafflecap_8_8
x237 VDD ctop vcom col_n[7] colon_n[7] net16 net15 VSS row_n[12] adc_array_wafflecap_8_8
x238 VDD ctop vcom col_n[7] colon_n[7] net16 net15 VSS row_n[13] adc_array_wafflecap_8_8
x239 VDD ctop vcom col_n[7] colon_n[7] net16 net15 VSS row_n[14] adc_array_wafflecap_8_8
x240 VDD ctop vcom col_n[7] colon_n[7] net16 net15 VSS row_n[15] adc_array_wafflecap_8_8
x241 VDD ctop vcom col_n[7] colon_n[7] net16 net15 VSS row_n[16] adc_array_wafflecap_8_8
x242 VDD ctop vcom col_n[7] colon_n[7] net16 net15 VSS row_n[17] adc_array_wafflecap_8_8
x243 VDD ctop vcom col_n[7] colon_n[7] net16 net15 VSS row_n[18] adc_array_wafflecap_8_8
x244 VDD ctop vcom col_n[7] colon_n[7] net16 net15 VSS row_n[19] adc_array_wafflecap_8_8
x245 VDD ctop vcom col_n[7] colon_n[7] net16 net15 VSS row_n[20] adc_array_wafflecap_8_8
x246 VDD ctop vcom col_n[7] colon_n[7] net16 net15 VSS row_n[21] adc_array_wafflecap_8_8
x247 VDD ctop vcom col_n[7] colon_n[7] net16 net15 VSS row_n[22] adc_array_wafflecap_8_8
x248 VDD ctop vcom col_n[7] colon_n[7] net16 net15 VSS row_n[23] adc_array_wafflecap_8_8
x249 VDD ctop vcom col_n[7] colon_n[7] net16 net15 VSS row_n[24] adc_array_wafflecap_8_8
x250 VDD ctop vcom col_n[7] colon_n[7] net16 net15 VSS row_n[25] adc_array_wafflecap_8_8
x251 VDD ctop vcom col_n[7] colon_n[7] net16 net15 VSS row_n[26] adc_array_wafflecap_8_8
x252 VDD ctop vcom col_n[7] colon_n[7] net16 net15 VSS row_n[27] adc_array_wafflecap_8_8
x253 VDD ctop vcom col_n[7] colon_n[7] net16 net15 VSS row_n[28] adc_array_wafflecap_8_8
x254 VDD ctop vcom col_n[7] colon_n[7] net16 net15 VSS row_n[29] adc_array_wafflecap_8_8
x255 VDD ctop vcom col_n[7] colon_n[7] net16 net15 VSS row_n[30] adc_array_wafflecap_8_8
x256 VDD ctop vcom col_n[7] colon_n[7] net16 net15 VSS row_n[31] adc_array_wafflecap_8_8
x257 VDD ctop vcom col_n[8] colon_n[8] net18 net17 VSS row_n[0] adc_array_wafflecap_8_8
x258 VDD ctop vcom col_n[8] colon_n[8] net18 net17 VSS row_n[1] adc_array_wafflecap_8_8
x259 VDD ctop vcom col_n[8] colon_n[8] net18 net17 VSS row_n[2] adc_array_wafflecap_8_8
x260 VDD ctop vcom col_n[8] colon_n[8] net18 net17 VSS row_n[3] adc_array_wafflecap_8_8
x261 VDD ctop vcom col_n[8] colon_n[8] net18 net17 VSS row_n[4] adc_array_wafflecap_8_8
x262 VDD ctop vcom col_n[8] colon_n[8] net18 net17 VSS row_n[5] adc_array_wafflecap_8_8
x263 VDD ctop vcom col_n[8] colon_n[8] net18 net17 VSS row_n[6] adc_array_wafflecap_8_8
x264 VDD ctop vcom col_n[8] colon_n[8] net18 net17 VSS row_n[7] adc_array_wafflecap_8_8
x265 VDD ctop vcom col_n[8] colon_n[8] net18 net17 VSS row_n[8] adc_array_wafflecap_8_8
x266 VDD ctop vcom col_n[8] colon_n[8] net18 net17 VSS row_n[9] adc_array_wafflecap_8_8
x267 VDD ctop vcom col_n[8] colon_n[8] net18 net17 VSS row_n[10] adc_array_wafflecap_8_8
x268 VDD ctop vcom col_n[8] colon_n[8] net18 net17 VSS row_n[11] adc_array_wafflecap_8_8
x269 VDD ctop vcom col_n[8] colon_n[8] net18 net17 VSS row_n[12] adc_array_wafflecap_8_8
x270 VDD ctop vcom col_n[8] colon_n[8] net18 net17 VSS row_n[13] adc_array_wafflecap_8_8
x271 VDD ctop vcom col_n[8] colon_n[8] net18 net17 VSS row_n[14] adc_array_wafflecap_8_8
x272 VDD ctop vcom col_n[8] colon_n[8] net18 net17 VSS row_n[15] adc_array_wafflecap_8_8
x273 VDD ctop vcom col_n[8] colon_n[8] net18 net17 VSS row_n[16] adc_array_wafflecap_8_8
x274 VDD ctop vcom col_n[8] colon_n[8] net18 net17 VSS row_n[17] adc_array_wafflecap_8_8
x275 VDD ctop vcom col_n[8] colon_n[8] net18 net17 VSS row_n[18] adc_array_wafflecap_8_8
x276 VDD ctop vcom col_n[8] colon_n[8] net18 net17 VSS row_n[19] adc_array_wafflecap_8_8
x277 VDD ctop vcom col_n[8] colon_n[8] net18 net17 VSS row_n[20] adc_array_wafflecap_8_8
x278 VDD ctop vcom col_n[8] colon_n[8] net18 net17 VSS row_n[21] adc_array_wafflecap_8_8
x279 VDD ctop vcom col_n[8] colon_n[8] net18 net17 VSS row_n[22] adc_array_wafflecap_8_8
x280 VDD ctop vcom col_n[8] colon_n[8] net18 net17 VSS row_n[23] adc_array_wafflecap_8_8
x281 VDD ctop vcom col_n[8] colon_n[8] net18 net17 VSS row_n[24] adc_array_wafflecap_8_8
x282 VDD ctop vcom col_n[8] colon_n[8] net18 net17 VSS row_n[25] adc_array_wafflecap_8_8
x283 VDD ctop vcom col_n[8] colon_n[8] net18 net17 VSS row_n[26] adc_array_wafflecap_8_8
x284 VDD ctop vcom col_n[8] colon_n[8] net18 net17 VSS row_n[27] adc_array_wafflecap_8_8
x285 VDD ctop vcom col_n[8] colon_n[8] net18 net17 VSS row_n[28] adc_array_wafflecap_8_8
x286 VDD ctop vcom col_n[8] colon_n[8] net18 net17 VSS row_n[29] adc_array_wafflecap_8_8
x287 VDD ctop vcom col_n[8] colon_n[8] net18 net17 VSS row_n[30] adc_array_wafflecap_8_8
x288 VDD ctop vcom col_n[8] colon_n[8] net18 net17 VSS row_n[31] adc_array_wafflecap_8_8
x289 VDD ctop vcom col_n[9] colon_n[9] net20 net19 VSS row_n[0] adc_array_wafflecap_8_8
x290 VDD ctop vcom col_n[9] colon_n[9] net20 net19 VSS row_n[1] adc_array_wafflecap_8_8
x291 VDD ctop vcom col_n[9] colon_n[9] net20 net19 VSS row_n[2] adc_array_wafflecap_8_8
x292 VDD ctop vcom col_n[9] colon_n[9] net20 net19 VSS row_n[3] adc_array_wafflecap_8_8
x293 VDD ctop vcom col_n[9] colon_n[9] net20 net19 VSS row_n[4] adc_array_wafflecap_8_8
x294 VDD ctop vcom col_n[9] colon_n[9] net20 net19 VSS row_n[5] adc_array_wafflecap_8_8
x295 VDD ctop vcom col_n[9] colon_n[9] net20 net19 VSS row_n[6] adc_array_wafflecap_8_8
x296 VDD ctop vcom col_n[9] colon_n[9] net20 net19 VSS row_n[7] adc_array_wafflecap_8_8
x297 VDD ctop vcom col_n[9] colon_n[9] net20 net19 VSS row_n[8] adc_array_wafflecap_8_8
x298 VDD ctop vcom col_n[9] colon_n[9] net20 net19 VSS row_n[9] adc_array_wafflecap_8_8
x299 VDD ctop vcom col_n[9] colon_n[9] net20 net19 VSS row_n[10] adc_array_wafflecap_8_8
x300 VDD ctop vcom col_n[9] colon_n[9] net20 net19 VSS row_n[11] adc_array_wafflecap_8_8
x301 VDD ctop vcom col_n[9] colon_n[9] net20 net19 VSS row_n[12] adc_array_wafflecap_8_8
x302 VDD ctop vcom col_n[9] colon_n[9] net20 net19 VSS row_n[13] adc_array_wafflecap_8_8
x303 VDD ctop vcom col_n[9] colon_n[9] net20 net19 VSS row_n[14] adc_array_wafflecap_8_8
x304 VDD ctop vcom col_n[9] colon_n[9] net20 net19 VSS row_n[15] adc_array_wafflecap_8_8
x305 VDD ctop vcom col_n[9] colon_n[9] net20 net19 VSS row_n[16] adc_array_wafflecap_8_8
x306 VDD ctop vcom col_n[9] colon_n[9] net20 net19 VSS row_n[17] adc_array_wafflecap_8_8
x307 VDD ctop vcom col_n[9] colon_n[9] net20 net19 VSS row_n[18] adc_array_wafflecap_8_8
x308 VDD ctop vcom col_n[9] colon_n[9] net20 net19 VSS row_n[19] adc_array_wafflecap_8_8
x309 VDD ctop vcom col_n[9] colon_n[9] net20 net19 VSS row_n[20] adc_array_wafflecap_8_8
x310 VDD ctop vcom col_n[9] colon_n[9] net20 net19 VSS row_n[21] adc_array_wafflecap_8_8
x311 VDD ctop vcom col_n[9] colon_n[9] net20 net19 VSS row_n[22] adc_array_wafflecap_8_8
x312 VDD ctop vcom col_n[9] colon_n[9] net20 net19 VSS row_n[23] adc_array_wafflecap_8_8
x313 VDD ctop vcom col_n[9] colon_n[9] net20 net19 VSS row_n[24] adc_array_wafflecap_8_8
x314 VDD ctop vcom col_n[9] colon_n[9] net20 net19 VSS row_n[25] adc_array_wafflecap_8_8
x315 VDD ctop vcom col_n[9] colon_n[9] net20 net19 VSS row_n[26] adc_array_wafflecap_8_8
x316 VDD ctop vcom col_n[9] colon_n[9] net20 net19 VSS row_n[27] adc_array_wafflecap_8_8
x317 VDD ctop vcom col_n[9] colon_n[9] net20 net19 VSS row_n[28] adc_array_wafflecap_8_8
x318 VDD ctop vcom col_n[9] colon_n[9] net20 net19 VSS row_n[29] adc_array_wafflecap_8_8
x319 VDD ctop vcom col_n[9] colon_n[9] net20 net19 VSS row_n[30] adc_array_wafflecap_8_8
x320 VDD ctop vcom col_n[9] colon_n[9] net20 net19 VSS row_n[31] adc_array_wafflecap_8_8
x321 VDD ctop vcom col_n[10] colon_n[10] net22 net21 VSS row_n[0] adc_array_wafflecap_8_8
x322 VDD ctop vcom col_n[10] colon_n[10] net22 net21 VSS row_n[1] adc_array_wafflecap_8_8
x323 VDD ctop vcom col_n[10] colon_n[10] net22 net21 VSS row_n[2] adc_array_wafflecap_8_8
x324 VDD ctop vcom col_n[10] colon_n[10] net22 net21 VSS row_n[3] adc_array_wafflecap_8_8
x325 VDD ctop vcom col_n[10] colon_n[10] net22 net21 VSS row_n[4] adc_array_wafflecap_8_8
x326 VDD ctop vcom col_n[10] colon_n[10] net22 net21 VSS row_n[5] adc_array_wafflecap_8_8
x327 VDD ctop vcom col_n[10] colon_n[10] net22 net21 VSS row_n[6] adc_array_wafflecap_8_8
x328 VDD ctop vcom col_n[10] colon_n[10] net22 net21 VSS row_n[7] adc_array_wafflecap_8_8
x329 VDD ctop vcom col_n[10] colon_n[10] net22 net21 VSS row_n[8] adc_array_wafflecap_8_8
x330 VDD ctop vcom col_n[10] colon_n[10] net22 net21 VSS row_n[9] adc_array_wafflecap_8_8
x331 VDD ctop vcom col_n[10] colon_n[10] net22 net21 VSS row_n[10] adc_array_wafflecap_8_8