*SPEF "ieee 1481-1999"
*DESIGN "adc_clkgen_with_edgedetect"
*DATE "11:11:11 Fri 11 11, 1111"
*VENDOR "OpenRCX"
*PROGRAM "Parallel Extraction"
*VERSION "1.0"
*DESIGN_FLOW "NAME_SCOPE LOCAL" "PIN_CAP NONE"
*DIVIDER /
*DELIMITER :
*BUS_DELIMITER []
*T_UNIT 1 NS
*C_UNIT 1 PF
*R_UNIT 1 OHM
*L_UNIT 1 HENRY

*NAME_MAP
*3 clk_comp
*4 clk_dig
*5 comp_trig
*6 ena_in
*7 start_conv
*10 _0_
*11 clkgen\.clk_comp
*12 clkgen\.clk_dig
*13 clkgen\.comp_trig
*14 clkgen\.comp_trig_delayed
*15 clkgen\.delay_100ns_1\._intsig_a_\[10\]
*16 clkgen\.delay_100ns_1\._intsig_a_\[11\]
*17 clkgen\.delay_100ns_1\._intsig_a_\[12\]
*18 clkgen\.delay_100ns_1\._intsig_a_\[13\]
*19 clkgen\.delay_100ns_1\._intsig_a_\[14\]
*20 clkgen\.delay_100ns_1\._intsig_a_\[15\]
*21 clkgen\.delay_100ns_1\._intsig_a_\[16\]
*22 clkgen\.delay_100ns_1\._intsig_a_\[17\]
*23 clkgen\.delay_100ns_1\._intsig_a_\[2\]
*24 clkgen\.delay_100ns_1\._intsig_a_\[3\]
*25 clkgen\.delay_100ns_1\._intsig_a_\[4\]
*26 clkgen\.delay_100ns_1\._intsig_a_\[5\]
*27 clkgen\.delay_100ns_1\._intsig_a_\[6\]
*28 clkgen\.delay_100ns_1\._intsig_a_\[7\]
*29 clkgen\.delay_100ns_1\._intsig_a_\[8\]
*30 clkgen\.delay_100ns_1\._intsig_a_\[9\]
*31 clkgen\.delay_100ns_2\._intsig_a_\[10\]
*32 clkgen\.delay_100ns_2\._intsig_a_\[11\]
*33 clkgen\.delay_100ns_2\._intsig_a_\[12\]
*34 clkgen\.delay_100ns_2\._intsig_a_\[13\]
*35 clkgen\.delay_100ns_2\._intsig_a_\[14\]
*36 clkgen\.delay_100ns_2\._intsig_a_\[15\]
*37 clkgen\.delay_100ns_2\._intsig_a_\[16\]
*38 clkgen\.delay_100ns_2\._intsig_a_\[17\]
*39 clkgen\.delay_100ns_2\._intsig_a_\[2\]
*40 clkgen\.delay_100ns_2\._intsig_a_\[3\]
*41 clkgen\.delay_100ns_2\._intsig_a_\[4\]
*42 clkgen\.delay_100ns_2\._intsig_a_\[5\]
*43 clkgen\.delay_100ns_2\._intsig_a_\[6\]
*44 clkgen\.delay_100ns_2\._intsig_a_\[7\]
*45 clkgen\.delay_100ns_2\._intsig_a_\[8\]
*46 clkgen\.delay_100ns_2\._intsig_a_\[9\]
*47 clkgen\.delay_100ns_2\.out
*48 clkgen\.delay_100ns_3\._intsig_a_\[10\]
*49 clkgen\.delay_100ns_3\._intsig_a_\[11\]
*50 clkgen\.delay_100ns_3\._intsig_a_\[12\]
*51 clkgen\.delay_100ns_3\._intsig_a_\[13\]
*52 clkgen\.delay_100ns_3\._intsig_a_\[14\]
*53 clkgen\.delay_100ns_3\._intsig_a_\[15\]
*54 clkgen\.delay_100ns_3\._intsig_a_\[16\]
*55 clkgen\.delay_100ns_3\._intsig_a_\[17\]
*56 clkgen\.delay_100ns_3\._intsig_a_\[1\]
*57 clkgen\.delay_100ns_3\._intsig_a_\[2\]
*58 clkgen\.delay_100ns_3\._intsig_a_\[3\]
*59 clkgen\.delay_100ns_3\._intsig_a_\[4\]
*60 clkgen\.delay_100ns_3\._intsig_a_\[5\]
*61 clkgen\.delay_100ns_3\._intsig_a_\[6\]
*62 clkgen\.delay_100ns_3\._intsig_a_\[7\]
*63 clkgen\.delay_100ns_3\._intsig_a_\[8\]
*64 clkgen\.delay_100ns_3\._intsig_a_\[9\]
*65 edgedetect\.delay_200ns\._intsig_a_\[10\]
*66 edgedetect\.delay_200ns\._intsig_a_\[11\]
*67 edgedetect\.delay_200ns\._intsig_a_\[12\]
*68 edgedetect\.delay_200ns\._intsig_a_\[13\]
*69 edgedetect\.delay_200ns\._intsig_a_\[14\]
*70 edgedetect\.delay_200ns\._intsig_a_\[15\]
*71 edgedetect\.delay_200ns\._intsig_a_\[16\]
*72 edgedetect\.delay_200ns\._intsig_a_\[17\]
*73 edgedetect\.delay_200ns\._intsig_a_\[18\]
*74 edgedetect\.delay_200ns\._intsig_a_\[19\]
*75 edgedetect\.delay_200ns\._intsig_a_\[1\]
*76 edgedetect\.delay_200ns\._intsig_a_\[20\]
*77 edgedetect\.delay_200ns\._intsig_a_\[21\]
*78 edgedetect\.delay_200ns\._intsig_a_\[22\]
*79 edgedetect\.delay_200ns\._intsig_a_\[23\]
*80 edgedetect\.delay_200ns\._intsig_a_\[24\]
*81 edgedetect\.delay_200ns\._intsig_a_\[25\]
*82 edgedetect\.delay_200ns\._intsig_a_\[26\]
*83 edgedetect\.delay_200ns\._intsig_a_\[27\]
*84 edgedetect\.delay_200ns\._intsig_a_\[28\]
*85 edgedetect\.delay_200ns\._intsig_a_\[29\]
*86 edgedetect\.delay_200ns\._intsig_a_\[2\]
*87 edgedetect\.delay_200ns\._intsig_a_\[30\]
*88 edgedetect\.delay_200ns\._intsig_a_\[31\]
*89 edgedetect\.delay_200ns\._intsig_a_\[32\]
*90 edgedetect\.delay_200ns\._intsig_a_\[33\]
*91 edgedetect\.delay_200ns\._intsig_a_\[34\]
*92 edgedetect\.delay_200ns\._intsig_a_\[3\]
*93 edgedetect\.delay_200ns\._intsig_a_\[4\]
*94 edgedetect\.delay_200ns\._intsig_a_\[5\]
*95 edgedetect\.delay_200ns\._intsig_a_\[6\]
*96 edgedetect\.delay_200ns\._intsig_a_\[7\]
*97 edgedetect\.delay_200ns\._intsig_a_\[8\]
*98 edgedetect\.delay_200ns\._intsig_a_\[9\]
*99 edgedetect\.delay_200ns\.out
*100 edgedetect\.ena_in
*101 FILLER_0_106
*102 FILLER_0_118
*103 FILLER_0_15
*104 FILLER_0_27
*105 FILLER_0_3
*106 FILLER_0_32
*107 FILLER_0_59
*108 FILLER_0_63
*109 FILLER_0_90
*110 FILLER_0_94
*111 FILLER_10_121
*112 FILLER_10_20
*113 FILLER_10_28
*114 FILLER_10_3
*115 FILLER_10_32
*116 FILLER_10_44
*117 FILLER_10_52
*118 FILLER_10_79
*119 FILLER_10_8
*120 FILLER_10_91
*121 FILLER_10_94
*122 FILLER_11_119
*123 FILLER_11_123
*124 FILLER_11_3
*125 FILLER_11_31
*126 FILLER_11_60
*127 FILLER_11_63
*128 FILLER_11_90
*129 FILLER_12_121
*130 FILLER_12_15
*131 FILLER_12_27
*132 FILLER_12_3
*133 FILLER_12_32
*134 FILLER_12_36
*135 FILLER_12_62
*136 FILLER_12_91
*137 FILLER_12_94
*138 FILLER_13_106
*139 FILLER_13_112
*140 FILLER_13_122
*141 FILLER_13_13
*142 FILLER_13_25
*143 FILLER_13_3
*144 FILLER_13_54
*145 FILLER_13_63
*146 FILLER_13_71
*147 FILLER_13_98
*148 FILLER_14_121
*149 FILLER_14_14
*150 FILLER_14_21
*151 FILLER_14_29
*152 FILLER_14_3
*153 FILLER_14_32
*154 FILLER_14_60
*155 FILLER_14_89
*156 FILLER_14_94
*157 FILLER_15_119
*158 FILLER_15_123
*159 FILLER_15_3
*160 FILLER_15_31
*161 FILLER_15_60
*162 FILLER_15_63
*163 FILLER_15_90
*164 FILLER_16_122
*165 FILLER_16_15
*166 FILLER_16_27
*167 FILLER_16_3
*168 FILLER_16_32
*169 FILLER_16_44
*170 FILLER_16_52
*171 FILLER_16_80
*172 FILLER_16_92
*173 FILLER_16_94
*174 FILLER_17_122
*175 FILLER_17_3
*176 FILLER_17_31
*177 FILLER_17_60
*178 FILLER_17_63
*179 FILLER_17_90
*180 FILLER_17_96
*181 FILLER_18_121
*182 FILLER_18_15
*183 FILLER_18_27
*184 FILLER_18_3
*185 FILLER_18_32
*186 FILLER_18_44
*187 FILLER_18_52
*188 FILLER_18_80
*189 FILLER_18_92
*190 FILLER_18_94
*191 FILLER_19_110
*192 FILLER_19_122
*193 FILLER_19_15
*194 FILLER_19_27
*195 FILLER_19_3
*196 FILLER_19_54
*197 FILLER_19_63
*198 FILLER_19_71
*199 FILLER_19_98
*200 FILLER_1_102
*201 FILLER_1_114
*202 FILLER_1_122
*203 FILLER_1_3
*204 FILLER_1_30
*205 FILLER_1_59
*206 FILLER_1_63
*207 FILLER_1_90
*208 FILLER_20_121
*209 FILLER_20_20
*210 FILLER_20_28
*211 FILLER_20_3
*212 FILLER_20_32
*213 FILLER_20_59
*214 FILLER_20_8
*215 FILLER_20_88
*216 FILLER_20_92
*217 FILLER_20_94
*218 FILLER_21_122
*219 FILLER_21_3
*220 FILLER_21_36
*221 FILLER_21_48
*222 FILLER_21_60
*223 FILLER_21_63
*224 FILLER_21_90
*225 FILLER_21_96
*226 FILLER_22_123
*227 FILLER_22_15
*228 FILLER_22_27
*229 FILLER_22_3
*230 FILLER_22_32
*231 FILLER_22_59
*232 FILLER_22_88
*233 FILLER_22_92
*234 FILLER_22_94
*235 FILLER_23_122
*236 FILLER_23_3
*237 FILLER_23_31
*238 FILLER_23_60
*239 FILLER_23_63
*240 FILLER_23_90
*241 FILLER_23_96
*242 FILLER_24_123
*243 FILLER_24_15
*244 FILLER_24_27
*245 FILLER_24_3
*246 FILLER_24_32
*247 FILLER_24_59
*248 FILLER_24_88
*249 FILLER_24_92
*250 FILLER_24_94
*251 FILLER_25_119
*252 FILLER_25_123
*253 FILLER_25_3
*254 FILLER_25_30
*255 FILLER_25_59
*256 FILLER_25_63
*257 FILLER_25_90
*258 FILLER_26_121
*259 FILLER_26_15
*260 FILLER_26_27
*261 FILLER_26_3
*262 FILLER_26_32
*263 FILLER_26_59
*264 FILLER_26_88
*265 FILLER_26_92
*266 FILLER_26_94
*267 FILLER_27_119
*268 FILLER_27_123
*269 FILLER_27_3
*270 FILLER_27_30
*271 FILLER_27_59
*272 FILLER_27_63
*273 FILLER_27_90
*274 FILLER_28_106
*275 FILLER_28_118
*276 FILLER_28_15
*277 FILLER_28_27
*278 FILLER_28_3
*279 FILLER_28_32
*280 FILLER_28_59
*281 FILLER_28_63
*282 FILLER_28_90
*283 FILLER_28_94
*284 FILLER_2_106
*285 FILLER_2_118
*286 FILLER_2_124
*287 FILLER_2_15
*288 FILLER_2_27
*289 FILLER_2_3
*290 FILLER_2_32
*291 FILLER_2_59
*292 FILLER_2_88
*293 FILLER_2_92
*294 FILLER_2_94
*295 FILLER_3_102
*296 FILLER_3_114
*297 FILLER_3_122
*298 FILLER_3_3
*299 FILLER_3_30
*300 FILLER_3_59
*301 FILLER_3_63
*302 FILLER_3_90
*303 FILLER_4_121
*304 FILLER_4_15
*305 FILLER_4_27
*306 FILLER_4_3
*307 FILLER_4_32
*308 FILLER_4_59
*309 FILLER_4_88
*310 FILLER_4_92
*311 FILLER_4_94
*312 FILLER_5_119
*313 FILLER_5_123
*314 FILLER_5_3
*315 FILLER_5_36
*316 FILLER_5_48
*317 FILLER_5_60
*318 FILLER_5_63
*319 FILLER_5_90
*320 FILLER_6_123
*321 FILLER_6_15
*322 FILLER_6_27
*323 FILLER_6_3
*324 FILLER_6_32
*325 FILLER_6_59
*326 FILLER_6_88
*327 FILLER_6_92
*328 FILLER_6_94
*329 FILLER_7_122
*330 FILLER_7_15
*331 FILLER_7_3
*332 FILLER_7_43
*333 FILLER_7_55
*334 FILLER_7_61
*335 FILLER_7_63
*336 FILLER_7_90
*337 FILLER_7_96
*338 FILLER_8_123
*339 FILLER_8_15
*340 FILLER_8_27
*341 FILLER_8_3
*342 FILLER_8_32
*343 FILLER_8_59
*344 FILLER_8_88
*345 FILLER_8_92
*346 FILLER_8_94
*347 FILLER_9_121
*348 FILLER_9_15
*349 FILLER_9_27
*350 FILLER_9_3
*351 FILLER_9_31
*352 FILLER_9_57
*353 FILLER_9_61
*354 FILLER_9_63
*355 FILLER_9_90
*356 PHY_0
*357 PHY_1
*358 PHY_10
*359 PHY_11
*360 PHY_12
*361 PHY_13
*362 PHY_14
*363 PHY_15
*364 PHY_16
*365 PHY_17
*366 PHY_18
*367 PHY_19
*368 PHY_2
*369 PHY_20
*370 PHY_21
*371 PHY_22
*372 PHY_23
*373 PHY_24
*374 PHY_25
*375 PHY_26
*376 PHY_27
*377 PHY_28
*378 PHY_29
*379 PHY_3
*380 PHY_30
*381 PHY_31
*382 PHY_32
*383 PHY_33
*384 PHY_34
*385 PHY_35
*386 PHY_36
*387 PHY_37
*388 PHY_38
*389 PHY_39
*390 PHY_4
*391 PHY_40
*392 PHY_41
*393 PHY_42
*394 PHY_43
*395 PHY_44
*396 PHY_45
*397 PHY_46
*398 PHY_47
*399 PHY_48
*400 PHY_49
*401 PHY_5
*402 PHY_50
*403 PHY_51
*404 PHY_52
*405 PHY_53
*406 PHY_54
*407 PHY_55
*408 PHY_56
*409 PHY_57
*410 PHY_6
*411 PHY_7
*412 PHY_8
*413 PHY_9
*414 TAP_100
*415 TAP_101
*416 TAP_102
*417 TAP_103
*418 TAP_104
*419 TAP_105
*420 TAP_106
*421 TAP_107
*422 TAP_108
*423 TAP_109
*424 TAP_110
*425 TAP_111
*426 TAP_112
*427 TAP_113
*428 TAP_114
*429 TAP_115
*430 TAP_116
*431 TAP_117
*432 TAP_118
*433 TAP_119
*434 TAP_58
*435 TAP_59
*436 TAP_60
*437 TAP_61
*438 TAP_62
*439 TAP_63
*440 TAP_64
*441 TAP_65
*442 TAP_66
*443 TAP_67
*444 TAP_68
*445 TAP_69
*446 TAP_70
*447 TAP_71
*448 TAP_72
*449 TAP_73
*450 TAP_74
*451 TAP_75
*452 TAP_76
*453 TAP_77
*454 TAP_78
*455 TAP_79
*456 TAP_80
*457 TAP_81
*458 TAP_82
*459 TAP_83
*460 TAP_84
*461 TAP_85
*462 TAP_86
*463 TAP_87
*464 TAP_88
*465 TAP_89
*466 TAP_90
*467 TAP_91
*468 TAP_92
*469 TAP_93
*470 TAP_94
*471 TAP_95
*472 TAP_96
*473 TAP_97
*474 TAP_98
*475 TAP_99
*476 _1_
*477 _2_
*478 _3_
*479 clkgen\.delay_100ns_1\.genblk1\[10\]\.delay_unit
*480 clkgen\.delay_100ns_1\.genblk1\[11\]\.delay_unit
*481 clkgen\.delay_100ns_1\.genblk1\[12\]\.delay_unit
*482 clkgen\.delay_100ns_1\.genblk1\[13\]\.delay_unit
*483 clkgen\.delay_100ns_1\.genblk1\[14\]\.delay_unit
*484 clkgen\.delay_100ns_1\.genblk1\[15\]\.delay_unit
*485 clkgen\.delay_100ns_1\.genblk1\[16\]\.delay_unit
*486 clkgen\.delay_100ns_1\.genblk1\[17\]\.delay_unit
*487 clkgen\.delay_100ns_1\.genblk1\[1\]\.delay_unit
*488 clkgen\.delay_100ns_1\.genblk1\[2\]\.delay_unit
*489 clkgen\.delay_100ns_1\.genblk1\[3\]\.delay_unit
*490 clkgen\.delay_100ns_1\.genblk1\[4\]\.delay_unit
*491 clkgen\.delay_100ns_1\.genblk1\[5\]\.delay_unit
*492 clkgen\.delay_100ns_1\.genblk1\[6\]\.delay_unit
*493 clkgen\.delay_100ns_1\.genblk1\[7\]\.delay_unit
*494 clkgen\.delay_100ns_1\.genblk1\[8\]\.delay_unit
*495 clkgen\.delay_100ns_1\.genblk1\[9\]\.delay_unit
*496 clkgen\.delay_100ns_2\.genblk1\[10\]\.delay_unit
*497 clkgen\.delay_100ns_2\.genblk1\[11\]\.delay_unit
*498 clkgen\.delay_100ns_2\.genblk1\[12\]\.delay_unit
*499 clkgen\.delay_100ns_2\.genblk1\[13\]\.delay_unit
*500 clkgen\.delay_100ns_2\.genblk1\[14\]\.delay_unit
*501 clkgen\.delay_100ns_2\.genblk1\[15\]\.delay_unit
*502 clkgen\.delay_100ns_2\.genblk1\[16\]\.delay_unit
*503 clkgen\.delay_100ns_2\.genblk1\[17\]\.delay_unit
*504 clkgen\.delay_100ns_2\.genblk1\[1\]\.delay_unit
*505 clkgen\.delay_100ns_2\.genblk1\[2\]\.delay_unit
*506 clkgen\.delay_100ns_2\.genblk1\[3\]\.delay_unit
*507 clkgen\.delay_100ns_2\.genblk1\[4\]\.delay_unit
*508 clkgen\.delay_100ns_2\.genblk1\[5\]\.delay_unit
*509 clkgen\.delay_100ns_2\.genblk1\[6\]\.delay_unit
*510 clkgen\.delay_100ns_2\.genblk1\[7\]\.delay_unit
*511 clkgen\.delay_100ns_2\.genblk1\[8\]\.delay_unit
*512 clkgen\.delay_100ns_2\.genblk1\[9\]\.delay_unit
*513 clkgen\.delay_100ns_3\.genblk1\[10\]\.delay_unit
*514 clkgen\.delay_100ns_3\.genblk1\[11\]\.delay_unit
*515 clkgen\.delay_100ns_3\.genblk1\[12\]\.delay_unit
*516 clkgen\.delay_100ns_3\.genblk1\[13\]\.delay_unit
*517 clkgen\.delay_100ns_3\.genblk1\[14\]\.delay_unit
*518 clkgen\.delay_100ns_3\.genblk1\[15\]\.delay_unit
*519 clkgen\.delay_100ns_3\.genblk1\[16\]\.delay_unit
*520 clkgen\.delay_100ns_3\.genblk1\[17\]\.delay_unit
*521 clkgen\.delay_100ns_3\.genblk1\[1\]\.delay_unit
*522 clkgen\.delay_100ns_3\.genblk1\[2\]\.delay_unit
*523 clkgen\.delay_100ns_3\.genblk1\[3\]\.delay_unit
*524 clkgen\.delay_100ns_3\.genblk1\[4\]\.delay_unit
*525 clkgen\.delay_100ns_3\.genblk1\[5\]\.delay_unit
*526 clkgen\.delay_100ns_3\.genblk1\[6\]\.delay_unit
*527 clkgen\.delay_100ns_3\.genblk1\[7\]\.delay_unit
*528 clkgen\.delay_100ns_3\.genblk1\[8\]\.delay_unit
*529 clkgen\.delay_100ns_3\.genblk1\[9\]\.delay_unit
*530 edgedetect\.delay_200ns\.genblk1\[10\]\.delay_unit
*531 edgedetect\.delay_200ns\.genblk1\[11\]\.delay_unit
*532 edgedetect\.delay_200ns\.genblk1\[12\]\.delay_unit
*533 edgedetect\.delay_200ns\.genblk1\[13\]\.delay_unit
*534 edgedetect\.delay_200ns\.genblk1\[14\]\.delay_unit
*535 edgedetect\.delay_200ns\.genblk1\[15\]\.delay_unit
*536 edgedetect\.delay_200ns\.genblk1\[16\]\.delay_unit
*537 edgedetect\.delay_200ns\.genblk1\[17\]\.delay_unit
*538 edgedetect\.delay_200ns\.genblk1\[18\]\.delay_unit
*539 edgedetect\.delay_200ns\.genblk1\[19\]\.delay_unit
*540 edgedetect\.delay_200ns\.genblk1\[1\]\.delay_unit
*541 edgedetect\.delay_200ns\.genblk1\[20\]\.delay_unit
*542 edgedetect\.delay_200ns\.genblk1\[21\]\.delay_unit
*543 edgedetect\.delay_200ns\.genblk1\[22\]\.delay_unit
*544 edgedetect\.delay_200ns\.genblk1\[23\]\.delay_unit
*545 edgedetect\.delay_200ns\.genblk1\[24\]\.delay_unit
*546 edgedetect\.delay_200ns\.genblk1\[25\]\.delay_unit
*547 edgedetect\.delay_200ns\.genblk1\[26\]\.delay_unit
*548 edgedetect\.delay_200ns\.genblk1\[27\]\.delay_unit
*549 edgedetect\.delay_200ns\.genblk1\[28\]\.delay_unit
*550 edgedetect\.delay_200ns\.genblk1\[29\]\.delay_unit
*551 edgedetect\.delay_200ns\.genblk1\[2\]\.delay_unit
*552 edgedetect\.delay_200ns\.genblk1\[30\]\.delay_unit
*553 edgedetect\.delay_200ns\.genblk1\[31\]\.delay_unit
*554 edgedetect\.delay_200ns\.genblk1\[32\]\.delay_unit
*555 edgedetect\.delay_200ns\.genblk1\[33\]\.delay_unit
*556 edgedetect\.delay_200ns\.genblk1\[34\]\.delay_unit
*557 edgedetect\.delay_200ns\.genblk1\[3\]\.delay_unit
*558 edgedetect\.delay_200ns\.genblk1\[4\]\.delay_unit
*559 edgedetect\.delay_200ns\.genblk1\[5\]\.delay_unit
*560 edgedetect\.delay_200ns\.genblk1\[6\]\.delay_unit
*561 edgedetect\.delay_200ns\.genblk1\[7\]\.delay_unit
*562 edgedetect\.delay_200ns\.genblk1\[8\]\.delay_unit
*563 edgedetect\.delay_200ns\.genblk1\[9\]\.delay_unit
*564 inbuf_1
*565 inbuf_2
*566 inbuf_3
*567 outbuf_1
*568 outbuf_2

*PORTS
clk_comp O
clk_dig O
comp_trig I
ena_in I
start_conv I

*D_NET *3 0.000749774
*CONN
*P clk_comp O
*I *568:X O *D sky130_fd_sc_hd__buf_4
*CAP
1 clk_comp 0.000374887
2 *568:X 0.000374887
3 clk_comp *517:in 0
4 clk_comp *519:in 0
5 clk_comp *568:A 0
*RES
1 *568:X clk_comp 10.3022 
*END

*D_NET *4 0.0015274
*CONN
*P clk_dig O
*I *567:X O *D sky130_fd_sc_hd__buf_4
*CAP
1 clk_dig 0.000763699
2 *567:X 0.000763699
3 clk_dig *486:in 0
4 clk_dig *504:in 0
5 clk_dig *506:in 0
*RES
1 *567:X clk_dig 17.7572 
*END

*D_NET *5 0.00167774
*CONN
*P comp_trig I
*I *566:A I *D sky130_fd_sc_hd__buf_1
*CAP
1 comp_trig 0.000838872
2 *566:A 0.000838872
3 *566:A *487:in 0
4 *566:A *492:in 0
5 *566:A *524:in 0
6 *566:A *557:in 0
7 *566:A *563:in 0
*RES
1 comp_trig *566:A 16.9818 
*END

*D_NET *6 0.00155304
*CONN
*P ena_in I
*I *564:A I *D sky130_fd_sc_hd__buf_1
*CAP
1 ena_in 0.000776519
2 *564:A 0.000776519
3 *564:A *98:8 0
*RES
1 ena_in *564:A 15.3102 
*END

*D_NET *7 0.000641138
*CONN
*P start_conv I
*I *565:A I *D sky130_fd_sc_hd__buf_1
*CAP
1 start_conv 0.000320569
2 *565:A 0.000320569
3 *565:A *540:in 0
4 *565:A *86:8 0
*RES
1 start_conv *565:A 5.45137 
*END

*D_NET *10 0.000196059
*CONN
*I *477:A2 I *D sky130_fd_sc_hd__o21ba_2
*I *476:X O *D sky130_fd_sc_hd__and2b_2
*CAP
1 *477:A2 9.80294e-05
2 *476:X 9.80294e-05
3 *477:A2 *563:in 0
*RES
1 *476:X *477:A2 9.03 
*END

*D_NET *11 0.00128154
*CONN
*I *568:A I *D sky130_fd_sc_hd__buf_4
*I *520:out O *D sky130_mm_sc_hd_dlyPoly6ns
*CAP
1 *568:A 0.000640772
2 *520:out 0.000640772
3 *568:A *517:in 0
4 *568:A *519:in 0
5 clk_comp *568:A 0
*RES
1 *520:out *568:A 19.245 
*END

*D_NET *12 0.00178903
*CONN
*I *567:A I *D sky130_fd_sc_hd__buf_4
*I *504:in I *D sky130_mm_sc_hd_dlyPoly6ns
*I *478:Y O *D sky130_fd_sc_hd__inv_2
*CAP
1 *567:A 2.26741e-05
2 *504:in 0.000767455
3 *478:Y 0.000104386
4 *12:5 0.000894515
5 *504:in *486:in 0
6 *504:in *506:in 0
7 *504:in *508:in 0
8 *504:in *509:in 0
9 *12:5 *509:in 0
10 clk_dig *504:in 0
*RES
1 *478:Y *12:5 3.43 
2 *12:5 *504:in 20.24 
3 *12:5 *567:A 2.05 
*END

*D_NET *13 0.00501496
*CONN
*I *487:in I *D sky130_mm_sc_hd_dlyPoly6ns
*I *566:X O *D sky130_fd_sc_hd__buf_1
*CAP
1 *487:in 0.00250748
2 *566:X 0.00250748
3 *487:in *492:in 0
4 *487:in *523:in 0
5 *487:in *545:in 0
6 *487:in *549:in 0
7 *487:in *69:17 0
8 *487:in *77:16 0
9 *487:in *86:8 0
10 *487:in *90:10 0
11 *487:in *94:20 0
12 *566:A *487:in 0
*RES
1 *566:X *487:in 49.5579 
*END

*D_NET *14 0.00140584
*CONN
*I *478:A I *D sky130_fd_sc_hd__inv_2
*I *486:out O *D sky130_mm_sc_hd_dlyPoly6ns
*CAP
1 *478:A 0.000702921
2 *486:out 0.000702921
3 *478:A *507:in 0
4 *478:A *509:in 0
*RES
1 *486:out *478:A 20.5125 
*END

*D_NET *15 0.000857284
*CONN
*I *479:in I *D sky130_mm_sc_hd_dlyPoly6ns
*I *495:out O *D sky130_mm_sc_hd_dlyPoly6ns
*CAP
1 *479:in 0.000428642
2 *495:out 0.000428642
3 *479:in *73:15 0
4 *479:in *79:15 0
*RES
1 *495:out *479:in 15.105 
*END

*D_NET *16 0.000432848
*CONN
*I *480:in I *D sky130_mm_sc_hd_dlyPoly6ns
*I *479:out O *D sky130_mm_sc_hd_dlyPoly6ns
*CAP
1 *480:in 0.000216424
2 *479:out 0.000216424
3 *480:in *545:in 0
*RES
1 *479:out *480:in 11.1375 
*END

*D_NET *17 0.000634284
*CONN
*I *481:in I *D sky130_mm_sc_hd_dlyPoly6ns
*I *480:out O *D sky130_mm_sc_hd_dlyPoly6ns
*CAP
1 *481:in 0.000317142
2 *480:out 0.000317142
3 *481:in *558:in 0
4 *481:in *97:14 0
*RES
1 *480:out *481:in 13.0875 
*END

*D_NET *18 0.000330184
*CONN
*I *482:in I *D sky130_mm_sc_hd_dlyPoly6ns
*I *481:out O *D sky130_mm_sc_hd_dlyPoly6ns
*CAP
1 *482:in 0.000165092
2 *481:out 0.000165092
3 *482:in *537:in 0
4 *482:in *561:in 0
*RES
1 *481:out *482:in 10.1753 
*END

*D_NET *19 0.000314889
*CONN
*I *483:in I *D sky130_mm_sc_hd_dlyPoly6ns
*I *482:out O *D sky130_mm_sc_hd_dlyPoly6ns
*CAP
1 *483:in 0.000157445
2 *482:out 0.000157445
3 *483:in *88:10 0
*RES
1 *482:out *483:in 10.1025 
*END

*D_NET *20 0.00026506
*CONN
*I *484:in I *D sky130_mm_sc_hd_dlyPoly6ns
*I *483:out O *D sky130_mm_sc_hd_dlyPoly6ns
*CAP
1 *484:in 0.00013253
2 *483:out 0.00013253
3 *484:in *486:in 0
*RES
1 *483:out *484:in 9.7275 
*END

*D_NET *21 0.000184834
*CONN
*I *485:in I *D sky130_mm_sc_hd_dlyPoly6ns
*I *484:out O *D sky130_mm_sc_hd_dlyPoly6ns
*CAP
1 *485:in 9.2417e-05
2 *484:out 9.2417e-05
3 *485:in *88:10 0
*RES
1 *484:out *485:in 8.9625 
*END

*D_NET *22 0.00175632
*CONN
*I *486:in I *D sky130_mm_sc_hd_dlyPoly6ns
*I *485:out O *D sky130_mm_sc_hd_dlyPoly6ns
*CAP
1 *486:in 0.000878159
2 *485:out 0.000878159
3 *486:in *506:in 0
4 *486:in *508:in 0
5 clk_dig *486:in 0
6 *484:in *486:in 0
7 *504:in *486:in 0
*RES
1 *485:out *486:in 23.9475 
*END

*D_NET *23 0.00104027
*CONN
*I *488:in I *D sky130_mm_sc_hd_dlyPoly6ns
*I *487:out O *D sky130_mm_sc_hd_dlyPoly6ns
*CAP
1 *488:in 0.000520137
2 *487:out 0.000520137
3 *488:in *490:in 0
*RES
1 *487:out *488:in 20.7175 
*END

*D_NET *24 0.000184834
*CONN
*I *489:in I *D sky130_mm_sc_hd_dlyPoly6ns
*I *488:out O *D sky130_mm_sc_hd_dlyPoly6ns
*CAP
1 *489:in 9.2417e-05
2 *488:out 9.2417e-05
*RES
1 *488:out *489:in 8.9625 
*END

*D_NET *25 0.000984366
*CONN
*I *490:in I *D sky130_mm_sc_hd_dlyPoly6ns
*I *489:out O *D sky130_mm_sc_hd_dlyPoly6ns
*CAP
1 *490:in 0.000492183
2 *489:out 0.000492183
3 *490:in *88:10 0
4 *490:in *90:10 0
5 *488:in *490:in 0
*RES
1 *489:out *490:in 16.29 
*END

*D_NET *26 0.00272801
*CONN
*I *491:in I *D sky130_mm_sc_hd_dlyPoly6ns
*I *490:out O *D sky130_mm_sc_hd_dlyPoly6ns
*CAP
1 *491:in 0.001364
2 *490:out 0.001364
3 *491:in *536:in 0
4 *491:in *541:in 0
5 *491:in *560:in 0
6 *491:in *79:15 0
7 *491:in *82:12 0
8 *491:in *83:8 0
9 *491:in *86:8 0
*RES
1 *490:out *491:in 24.9912 
*END

*D_NET *27 0.00166984
*CONN
*I *492:in I *D sky130_mm_sc_hd_dlyPoly6ns
*I *491:out O *D sky130_mm_sc_hd_dlyPoly6ns
*CAP
1 *492:in 0.000834919
2 *491:out 0.000834919
3 *492:in *557:in 0
4 *492:in *563:in 0
5 *487:in *492:in 0
6 *566:A *492:in 0
*RES
1 *491:out *492:in 22.4025 
*END

*D_NET *28 0.00158031
*CONN
*I *493:in I *D sky130_mm_sc_hd_dlyPoly6ns
*I *492:out O *D sky130_mm_sc_hd_dlyPoly6ns
*CAP
1 *493:in 0.000790153
2 *492:out 0.000790153
3 *493:in *523:in 0
4 *493:in *528:in 0
5 *493:in *531:in 0
6 *493:in *536:in 0
7 *493:in *86:8 0
*RES
1 *492:out *493:in 25.5325 
*END

*D_NET *29 0.00119632
*CONN
*I *494:in I *D sky130_mm_sc_hd_dlyPoly6ns
*I *493:out O *D sky130_mm_sc_hd_dlyPoly6ns
*CAP
1 *494:in 0.000598159
2 *493:out 0.000598159
3 *494:in *523:in 0
4 *494:in *524:in 0
5 *494:in *563:in 0
6 *494:in *86:8 0
*RES
1 *493:out *494:in 22.0225 
*END

*D_NET *30 0.000724735
*CONN
*I *495:in I *D sky130_mm_sc_hd_dlyPoly6ns
*I *494:out O *D sky130_mm_sc_hd_dlyPoly6ns
*CAP
1 *495:in 0.000362368
2 *494:out 0.000362368
3 *495:in *528:in 0
4 *495:in *67:18 0
5 *495:in *70:16 0
6 *495:in *83:12 0
*RES
1 *494:out *495:in 18.0025 
*END

*D_NET *31 0.000499445
*CONN
*I *496:in I *D sky130_mm_sc_hd_dlyPoly6ns
*I *512:out O *D sky130_mm_sc_hd_dlyPoly6ns
*CAP
1 *496:in 0.000249723
2 *512:out 0.000249723
3 *496:in *536:in 0
4 *496:in *558:in 0
5 *496:in *97:14 0
*RES
1 *512:out *496:in 11.9625 
*END

*D_NET *32 0.000347722
*CONN
*I *497:in I *D sky130_mm_sc_hd_dlyPoly6ns
*I *496:out O *D sky130_mm_sc_hd_dlyPoly6ns
*CAP
1 *497:in 0.000173861
2 *496:out 0.000173861
3 *497:in *70:16 0
4 *497:in *78:8 0
*RES
1 *496:out *497:in 10.38 
*END

*D_NET *33 0.000452254
*CONN
*I *498:in I *D sky130_mm_sc_hd_dlyPoly6ns
*I *497:out O *D sky130_mm_sc_hd_dlyPoly6ns
*CAP
1 *498:in 0.000226127
2 *497:out 0.000226127
3 *498:in *531:in 0
4 *498:in *536:in 0
*RES
1 *497:out *498:in 11.5125 
*END

*D_NET *34 0.000673107
*CONN
*I *499:in I *D sky130_mm_sc_hd_dlyPoly6ns
*I *498:out O *D sky130_mm_sc_hd_dlyPoly6ns
*CAP
1 *499:in 0.000336553
2 *498:out 0.000336553
3 *499:in *523:in 0
4 *499:in *86:8 0
*RES
1 *498:out *499:in 13.47 
*END

*D_NET *35 0.00120697
*CONN
*I *500:in I *D sky130_mm_sc_hd_dlyPoly6ns
*I *499:out O *D sky130_mm_sc_hd_dlyPoly6ns
*CAP
1 *500:in 0.000603487
2 *499:out 0.000603487
3 *500:in *540:in 0
4 *500:in *98:8 0
*RES
1 *499:out *500:in 18.4575 
*END

*D_NET *36 0.000582309
*CONN
*I *501:in I *D sky130_mm_sc_hd_dlyPoly6ns
*I *500:out O *D sky130_mm_sc_hd_dlyPoly6ns
*CAP
1 *501:in 0.000291154
2 *500:out 0.000291154
3 *501:in *56:27 0
4 *501:in *70:16 0
5 *501:in *99:21 0
*RES
1 *500:out *501:in 12.6525 
*END

*D_NET *37 0.00094463
*CONN
*I *502:in I *D sky130_mm_sc_hd_dlyPoly6ns
*I *501:out O *D sky130_mm_sc_hd_dlyPoly6ns
*CAP
1 *502:in 0.000472315
2 *501:out 0.000472315
3 *502:in *476:A_N 0
4 *502:in *540:in 0
5 *502:in *99:21 0
*RES
1 *501:out *502:in 15.6225 
*END

*D_NET *38 0.00175385
*CONN
*I *503:in I *D sky130_mm_sc_hd_dlyPoly6ns
*I *502:out O *D sky130_mm_sc_hd_dlyPoly6ns
*CAP
1 *503:in 0.000876923
2 *502:out 0.000876923
3 *503:in *531:in 0
4 *503:in *534:in 0
5 *503:in *546:in 0
6 *503:in *83:12 0
7 *503:in *97:14 0
*RES
1 *502:out *503:in 23.6325 
*END

*D_NET *39 0.000264981
*CONN
*I *505:in I *D sky130_mm_sc_hd_dlyPoly6ns
*I *504:out O *D sky130_mm_sc_hd_dlyPoly6ns
*CAP
1 *505:in 0.000132491
2 *504:out 0.000132491
3 *505:in *88:10 0
*RES
1 *504:out *505:in 9.7275 
*END

*D_NET *40 0.000425512
*CONN
*I *506:in I *D sky130_mm_sc_hd_dlyPoly6ns
*I *505:out O *D sky130_mm_sc_hd_dlyPoly6ns
*CAP
1 *506:in 0.000212756
2 *505:out 0.000212756
3 clk_dig *506:in 0
4 *486:in *506:in 0
5 *504:in *506:in 0
*RES
1 *505:out *506:in 11.2575 
*END

*D_NET *41 0.000184834
*CONN
*I *507:in I *D sky130_mm_sc_hd_dlyPoly6ns
*I *506:out O *D sky130_mm_sc_hd_dlyPoly6ns
*CAP
1 *507:in 9.2417e-05
2 *506:out 9.2417e-05
3 *507:in *88:10 0
4 *478:A *507:in 0
*RES
1 *506:out *507:in 8.9625 
*END

*D_NET *42 0.00026506
*CONN
*I *508:in I *D sky130_mm_sc_hd_dlyPoly6ns
*I *507:out O *D sky130_mm_sc_hd_dlyPoly6ns
*CAP
1 *508:in 0.00013253
2 *507:out 0.00013253
3 *486:in *508:in 0
4 *504:in *508:in 0
*RES
1 *507:out *508:in 9.7275 
*END

*D_NET *43 0.00113312
*CONN
*I *509:in I *D sky130_mm_sc_hd_dlyPoly6ns
*I *508:out O *D sky130_mm_sc_hd_dlyPoly6ns
*CAP
1 *509:in 0.000566558
2 *508:out 0.000566558
3 *509:in *88:10 0
4 *478:A *509:in 0
5 *504:in *509:in 0
6 *12:5 *509:in 0
*RES
1 *508:out *509:in 21.5725 
*END

*D_NET *44 0.000418401
*CONN
*I *510:in I *D sky130_mm_sc_hd_dlyPoly6ns
*I *509:out O *D sky130_mm_sc_hd_dlyPoly6ns
*CAP
1 *510:in 0.000209201
2 *509:out 0.000209201
*RES
1 *509:out *510:in 6.92 
*END

*D_NET *45 0.000184834
*CONN
*I *511:in I *D sky130_mm_sc_hd_dlyPoly6ns
*I *510:out O *D sky130_mm_sc_hd_dlyPoly6ns
*CAP
1 *511:in 9.2417e-05
2 *510:out 9.2417e-05
3 *511:in *556:in 0
4 *511:in *77:16 0
*RES
1 *510:out *511:in 8.9625 
*END

*D_NET *46 0.000552432
*CONN
*I *512:in I *D sky130_mm_sc_hd_dlyPoly6ns
*I *511:out O *D sky130_mm_sc_hd_dlyPoly6ns
*CAP
1 *512:in 0.000276216
2 *511:out 0.000276216
3 *512:in *533:in 0
4 *512:in *545:in 0
5 *512:in *94:20 0
*RES
1 *511:out *512:in 12.2475 
*END

*D_NET *47 0.00606573
*CONN
*I *477:B1_N I *D sky130_fd_sc_hd__o21ba_2
*I *503:out O *D sky130_mm_sc_hd_dlyPoly6ns
*CAP
1 *477:B1_N 0.000895657
2 *503:out 0.00213721
3 *47:15 0.00303286
4 *477:B1_N *526:in 0
5 *47:15 *542:in 0
6 *47:15 *546:in 0
7 *47:15 *550:in 0
8 *47:15 *556:in 0
9 *47:15 *77:16 0
10 *47:15 *81:14 0
11 *47:15 *87:12 0
12 *47:15 *91:14 0
13 *47:15 *97:14 0
*RES
1 *503:out *47:15 49.4025 
2 *47:15 *477:B1_N 14.0145 
*END

*D_NET *48 0.000594926
*CONN
*I *513:in I *D sky130_mm_sc_hd_dlyPoly6ns
*I *529:out O *D sky130_mm_sc_hd_dlyPoly6ns
*CAP
1 *513:in 0.000297463
2 *529:out 0.000297463
3 *513:in *81:14 0
4 *513:in *91:14 0
5 *513:in *94:20 0
*RES
1 *529:out *513:in 12.7425 
*END

*D_NET *49 0.000395115
*CONN
*I *514:in I *D sky130_mm_sc_hd_dlyPoly6ns
*I *513:out O *D sky130_mm_sc_hd_dlyPoly6ns
*CAP
1 *514:in 0.000197558
2 *513:out 0.000197558
3 *514:in *516:in 0
4 *514:in *88:10 0
*RES
1 *513:out *514:in 10.8675 
*END

*D_NET *50 0.000452254
*CONN
*I *515:in I *D sky130_mm_sc_hd_dlyPoly6ns
*I *514:out O *D sky130_mm_sc_hd_dlyPoly6ns
*CAP
1 *515:in 0.000226127
2 *514:out 0.000226127
3 *515:in *517:in 0
*RES
1 *514:out *515:in 11.5125 
*END

*D_NET *51 0.000612705
*CONN
*I *516:in I *D sky130_mm_sc_hd_dlyPoly6ns
*I *515:out O *D sky130_mm_sc_hd_dlyPoly6ns
*CAP
1 *516:in 0.000306353
2 *515:out 0.000306353
3 *516:in *88:10 0
4 *514:in *516:in 0
*RES
1 *515:out *516:in 13.0425 
*END

*D_NET *52 0.000853383
*CONN
*I *517:in I *D sky130_mm_sc_hd_dlyPoly6ns
*I *516:out O *D sky130_mm_sc_hd_dlyPoly6ns
*CAP
1 *517:in 0.000426691
2 *516:out 0.000426691
3 clk_comp *517:in 0
4 *515:in *517:in 0
5 *568:A *517:in 0
*RES
1 *516:out *517:in 15.3375 
*END

*D_NET *53 0.000184755
*CONN
*I *518:in I *D sky130_mm_sc_hd_dlyPoly6ns
*I *517:out O *D sky130_mm_sc_hd_dlyPoly6ns
*CAP
1 *518:in 9.23777e-05
2 *517:out 9.23777e-05
3 *518:in *88:10 0
*RES
1 *517:out *518:in 8.9625 
*END

*D_NET *54 0.00026506
*CONN
*I *519:in I *D sky130_mm_sc_hd_dlyPoly6ns
*I *518:out O *D sky130_mm_sc_hd_dlyPoly6ns
*CAP
1 *519:in 0.00013253
2 *518:out 0.00013253
3 clk_comp *519:in 0
4 *568:A *519:in 0
*RES
1 *518:out *519:in 9.7275 
*END

*D_NET *55 0.000184755
*CONN
*I *520:in I *D sky130_mm_sc_hd_dlyPoly6ns
*I *519:out O *D sky130_mm_sc_hd_dlyPoly6ns
*CAP
1 *520:in 9.23777e-05
2 *519:out 9.23777e-05
3 *520:in *88:10 0
*RES
1 *519:out *520:in 8.9625 
*END

*D_NET *56 0.00426669
*CONN
*I *521:in I *D sky130_mm_sc_hd_dlyPoly6ns
*I *477:X O *D sky130_fd_sc_hd__o21ba_2
*CAP
1 *521:in 0
2 *477:X 0.00213335
3 *56:27 0.00213335
4 *56:27 *540:in 0
5 *56:27 *563:in 0
6 *56:27 *67:18 0
7 *56:27 *70:16 0
8 *56:27 *75:5 0
9 *56:27 *83:12 0
10 *56:27 *99:21 0
11 *501:in *56:27 0
*RES
1 *477:X *56:27 49.005 
2 *56:27 *521:in 1.6 
*END

*D_NET *57 0.00207123
*CONN
*I *522:in I *D sky130_mm_sc_hd_dlyPoly6ns
*I *521:out O *D sky130_mm_sc_hd_dlyPoly6ns
*CAP
1 *522:in 0.00103561
2 *521:out 0.00103561
3 *522:in *531:in 0
4 *522:in *532:in 0
5 *522:in *534:in 0
6 *522:in *550:in 0
7 *522:in *556:in 0
8 *522:in *560:in 0
9 *522:in *69:17 0
10 *522:in *77:16 0
*RES
1 *521:out *522:in 26.848 
*END

*D_NET *58 0.00307988
*CONN
*I *523:in I *D sky130_mm_sc_hd_dlyPoly6ns
*I *522:out O *D sky130_mm_sc_hd_dlyPoly6ns
*CAP
1 *523:in 0.00153994
2 *522:out 0.00153994
3 *523:in *525:in 0
4 *523:in *82:12 0
5 *523:in *86:8 0
6 *487:in *523:in 0
7 *493:in *523:in 0
8 *494:in *523:in 0
9 *499:in *523:in 0
*RES
1 *522:out *523:in 36.42 
*END

*D_NET *59 0.00141203
*CONN
*I *524:in I *D sky130_mm_sc_hd_dlyPoly6ns
*I *523:out O *D sky130_mm_sc_hd_dlyPoly6ns
*CAP
1 *524:in 0.000706015
2 *523:out 0.000706015
3 *524:in *563:in 0
4 *494:in *524:in 0
5 *566:A *524:in 0
*RES
1 *523:out *524:in 20.6775 
*END

*D_NET *60 0.000615142
*CONN
*I *525:in I *D sky130_mm_sc_hd_dlyPoly6ns
*I *524:out O *D sky130_mm_sc_hd_dlyPoly6ns
*CAP
1 *525:in 0.000307571
2 *524:out 0.000307571
3 *525:in *86:8 0
4 *523:in *525:in 0
*RES
1 *524:out *525:in 12.93 
*END

*D_NET *61 0.000460591
*CONN
*I *526:in I *D sky130_mm_sc_hd_dlyPoly6ns
*I *525:out O *D sky130_mm_sc_hd_dlyPoly6ns
*CAP
1 *526:in 0.000230295
2 *525:out 0.000230295
3 *526:in *67:18 0
4 *526:in *70:16 0
5 *526:in *83:12 0
6 *477:B1_N *526:in 0
*RES
1 *525:out *526:in 10.4551 
*END

*D_NET *62 0.00026506
*CONN