*SPEF "ieee 1481-1999"
*DESIGN "adc_clkgen_with_edgedetect"
*DATE "11:11:11 Fri 11 11, 1111"
*VENDOR "OpenRCX"
*PROGRAM "Parallel Extraction"
*VERSION "1.0"
*DESIGN_FLOW "NAME_SCOPE LOCAL" "PIN_CAP NONE"
*DIVIDER /
*DELIMITER :
*BUS_DELIMITER []
*T_UNIT 1 NS
*C_UNIT 1 PF
*R_UNIT 1 OHM
*L_UNIT 1 HENRY

*NAME_MAP
*3 clk_comp
*4 clk_dig
*5 dlycontrol1[0]
*6 dlycontrol1[1]
*7 dlycontrol1[2]
*8 dlycontrol1[3]
*9 dlycontrol1[4]
*10 dlycontrol2[0]
*11 dlycontrol2[1]
*12 dlycontrol2[2]
*13 dlycontrol2[3]
*14 dlycontrol2[4]
*15 dlycontrol3[0]
*16 dlycontrol3[1]
*17 dlycontrol3[2]
*18 dlycontrol3[3]
*19 dlycontrol3[4]
*20 dlycontrol4[0]
*21 dlycontrol4[1]
*22 dlycontrol4[2]
*23 dlycontrol4[3]
*24 dlycontrol4[4]
*25 dlycontrol4[5]
*26 ena_in
*27 enable_dlycontrol
*28 ndecision_finish
*29 nsample_n
*30 nsample_n_buf
*31 nsample_p
*32 nsample_p_buf
*33 sample_n
*34 sample_n_buf
*35 sample_p
*36 sample_p_buf
*37 start_conv
*40 _000_
*41 _001_
*42 _002_
*43 _003_
*44 _004_
*45 _005_
*46 _006_
*47 _007_
*48 _008_
*49 _009_
*50 _010_
*51 _011_
*52 _012_
*53 _013_
*54 _014_
*55 _015_
*56 _016_
*57 _017_
*58 _018_
*59 _019_
*60 _020_
*61 _021_
*62 _022_
*63 _023_
*64 _024_
*65 _025_
*66 _026_
*67 _027_
*68 _028_
*69 _029_
*70 _030_
*71 _031_
*72 _032_
*73 _033_
*74 _034_
*75 _035_
*76 _036_
*77 _037_
*78 _038_
*79 _039_
*80 _040_
*81 _041_
*82 _042_
*83 _043_
*84 _044_
*85 _045_
*86 _046_
*87 _047_
*88 _048_
*89 _049_
*90 _050_
*91 _051_
*92 _052_
*93 _053_
*94 _054_
*95 _055_
*96 _056_
*97 _057_
*98 _058_
*99 _059_
*100 _060_
*101 _061_
*102 _062_
*103 _063_
*104 _064_
*105 _065_
*106 _066_
*107 _067_
*108 _068_
*109 _069_
*110 _070_
*111 _071_
*112 _072_
*113 _073_
*114 _074_
*115 _075_
*116 _076_
*117 _077_
*118 _078_
*119 _079_
*120 _080_
*121 _081_
*122 _082_
*123 _083_
*124 _084_
*125 _085_
*126 _086_
*127 _087_
*128 _088_
*129 _089_
*130 _090_
*131 _091_
*132 _092_
*133 _093_
*134 _094_
*135 _095_
*136 _096_
*137 _097_
*138 _098_
*139 _099_
*140 _100_
*141 _101_
*142 _102_
*143 _103_
*144 _104_
*145 _105_
*146 _106_
*147 _107_
*148 _108_
*149 _109_
*150 _110_
*151 _111_
*152 _112_
*153 _113_
*154 _114_
*155 _115_
*156 _116_
*157 _117_
*158 _118_
*159 _119_
*160 _120_
*161 _121_
*162 _122_
*163 _123_
*164 _124_
*165 _125_
*166 _126_
*167 _127_
*168 _128_
*169 _129_
*170 _130_
*171 _131_
*172 _132_
*173 _133_
*174 _134_
*175 _135_
*176 _136_
*177 _137_
*178 _138_
*179 _139_
*180 _140_
*181 _141_
*182 _142_
*183 _143_
*184 _144_
*185 _145_
*186 _146_
*187 _147_
*188 _148_
*189 _149_
*190 _150_
*191 _151_
*192 _152_
*193 _153_
*194 _154_
*195 _155_
*196 _156_
*197 _157_
*198 _158_
*199 _159_
*200 _160_
*201 _161_
*202 _162_
*203 _163_
*204 _164_
*205 _165_
*206 _166_
*207 _167_
*208 _168_
*209 _169_
*210 _170_
*211 _171_
*212 _172_
*213 _173_
*214 _174_
*215 _175_
*216 _176_
*217 _177_
*218 _178_
*219 _179_
*220 _180_
*221 _181_
*222 _182_
*223 clkgen\._clk_dig_delayed_
*224 clkgen\._ndecision_finish_delayed_
*225 clkgen\._net_1_
*226 clkgen\.clk_comp
*227 clkgen\.clk_dig
*228 clkgen\.delay_100ns_1\._bypass_\[0\]
*229 clkgen\.delay_100ns_1\._bypass_\[10\]
*230 clkgen\.delay_100ns_1\._bypass_\[11\]
*231 clkgen\.delay_100ns_1\._bypass_\[12\]
*232 clkgen\.delay_100ns_1\._bypass_\[13\]
*233 clkgen\.delay_100ns_1\._bypass_\[14\]
*234 clkgen\.delay_100ns_1\._bypass_\[15\]
*235 clkgen\.delay_100ns_1\._bypass_\[16\]
*236 clkgen\.delay_100ns_1\._bypass_\[17\]
*237 clkgen\.delay_100ns_1\._bypass_\[18\]
*238 clkgen\.delay_100ns_1\._bypass_\[19\]
*239 clkgen\.delay_100ns_1\._bypass_\[1\]
*240 clkgen\.delay_100ns_1\._bypass_\[2\]
*241 clkgen\.delay_100ns_1\._bypass_\[3\]
*242 clkgen\.delay_100ns_1\._bypass_\[4\]
*243 clkgen\.delay_100ns_1\._bypass_\[5\]
*244 clkgen\.delay_100ns_1\._bypass_\[6\]
*245 clkgen\.delay_100ns_1\._bypass_\[7\]
*246 clkgen\.delay_100ns_1\._bypass_\[8\]
*247 clkgen\.delay_100ns_1\._bypass_\[9\]
*248 clkgen\.delay_100ns_1\._siga_\[0\]
*249 clkgen\.delay_100ns_1\._siga_\[10\]
*250 clkgen\.delay_100ns_1\._siga_\[11\]
*251 clkgen\.delay_100ns_1\._siga_\[12\]
*252 clkgen\.delay_100ns_1\._siga_\[13\]
*253 clkgen\.delay_100ns_1\._siga_\[14\]
*254 clkgen\.delay_100ns_1\._siga_\[15\]
*255 clkgen\.delay_100ns_1\._siga_\[16\]
*256 clkgen\.delay_100ns_1\._siga_\[17\]
*257 clkgen\.delay_100ns_1\._siga_\[18\]
*258 clkgen\.delay_100ns_1\._siga_\[19\]
*259 clkgen\.delay_100ns_1\._siga_\[1\]
*260 clkgen\.delay_100ns_1\._siga_\[2\]
*261 clkgen\.delay_100ns_1\._siga_\[3\]
*262 clkgen\.delay_100ns_1\._siga_\[4\]
*263 clkgen\.delay_100ns_1\._siga_\[5\]
*264 clkgen\.delay_100ns_1\._siga_\[6\]
*265 clkgen\.delay_100ns_1\._siga_\[7\]
*266 clkgen\.delay_100ns_1\._siga_\[8\]
*267 clkgen\.delay_100ns_1\._siga_\[9\]
*268 clkgen\.delay_100ns_1\._sigb_\[0\]
*269 clkgen\.delay_100ns_1\._sigb_\[10\]
*270 clkgen\.delay_100ns_1\._sigb_\[11\]
*271 clkgen\.delay_100ns_1\._sigb_\[12\]
*272 clkgen\.delay_100ns_1\._sigb_\[13\]
*273 clkgen\.delay_100ns_1\._sigb_\[14\]
*274 clkgen\.delay_100ns_1\._sigb_\[15\]
*275 clkgen\.delay_100ns_1\._sigb_\[16\]
*276 clkgen\.delay_100ns_1\._sigb_\[17\]
*277 clkgen\.delay_100ns_1\._sigb_\[18\]
*278 clkgen\.delay_100ns_1\._sigb_\[19\]
*279 clkgen\.delay_100ns_1\._sigb_\[1\]
*280 clkgen\.delay_100ns_1\._sigb_\[2\]
*281 clkgen\.delay_100ns_1\._sigb_\[3\]
*282 clkgen\.delay_100ns_1\._sigb_\[4\]
*283 clkgen\.delay_100ns_1\._sigb_\[5\]
*284 clkgen\.delay_100ns_1\._sigb_\[6\]
*285 clkgen\.delay_100ns_1\._sigb_\[7\]
*286 clkgen\.delay_100ns_1\._sigb_\[8\]
*287 clkgen\.delay_100ns_1\._sigb_\[9\]
*288 clkgen\.delay_100ns_1\._sigc_\[0\]
*289 clkgen\.delay_100ns_1\._sigc_\[10\]
*290 clkgen\.delay_100ns_1\._sigc_\[11\]
*291 clkgen\.delay_100ns_1\._sigc_\[12\]
*292 clkgen\.delay_100ns_1\._sigc_\[13\]
*293 clkgen\.delay_100ns_1\._sigc_\[14\]
*294 clkgen\.delay_100ns_1\._sigc_\[15\]
*295 clkgen\.delay_100ns_1\._sigc_\[16\]
*296 clkgen\.delay_100ns_1\._sigc_\[17\]
*297 clkgen\.delay_100ns_1\._sigc_\[18\]
*298 clkgen\.delay_100ns_1\._sigc_\[19\]
*299 clkgen\.delay_100ns_1\._sigc_\[1\]
*300 clkgen\.delay_100ns_1\._sigc_\[2\]
*301 clkgen\.delay_100ns_1\._sigc_\[3\]
*302 clkgen\.delay_100ns_1\._sigc_\[4\]
*303 clkgen\.delay_100ns_1\._sigc_\[5\]
*304 clkgen\.delay_100ns_1\._sigc_\[6\]
*305 clkgen\.delay_100ns_1\._sigc_\[7\]
*306 clkgen\.delay_100ns_1\._sigc_\[8\]
*307 clkgen\.delay_100ns_1\._sigc_\[9\]
*308 clkgen\.delay_100ns_2\._bypass_\[0\]
*309 clkgen\.delay_100ns_2\._bypass_\[10\]
*310 clkgen\.delay_100ns_2\._bypass_\[11\]
*311 clkgen\.delay_100ns_2\._bypass_\[12\]
*312 clkgen\.delay_100ns_2\._bypass_\[13\]
*313 clkgen\.delay_100ns_2\._bypass_\[14\]
*314 clkgen\.delay_100ns_2\._bypass_\[15\]
*315 clkgen\.delay_100ns_2\._bypass_\[16\]
*316 clkgen\.delay_100ns_2\._bypass_\[17\]
*317 clkgen\.delay_100ns_2\._bypass_\[18\]
*318 clkgen\.delay_100ns_2\._bypass_\[19\]
*319 clkgen\.delay_100ns_2\._bypass_\[1\]
*320 clkgen\.delay_100ns_2\._bypass_\[2\]
*321 clkgen\.delay_100ns_2\._bypass_\[3\]
*322 clkgen\.delay_100ns_2\._bypass_\[4\]
*323 clkgen\.delay_100ns_2\._bypass_\[5\]
*324 clkgen\.delay_100ns_2\._bypass_\[6\]
*325 clkgen\.delay_100ns_2\._bypass_\[7\]
*326 clkgen\.delay_100ns_2\._bypass_\[8\]
*327 clkgen\.delay_100ns_2\._bypass_\[9\]
*328 clkgen\.delay_100ns_2\._siga_\[10\]
*329 clkgen\.delay_100ns_2\._siga_\[11\]
*330 clkgen\.delay_100ns_2\._siga_\[12\]
*331 clkgen\.delay_100ns_2\._siga_\[13\]
*332 clkgen\.delay_100ns_2\._siga_\[14\]
*333 clkgen\.delay_100ns_2\._siga_\[15\]
*334 clkgen\.delay_100ns_2\._siga_\[16\]
*335 clkgen\.delay_100ns_2\._siga_\[17\]
*336 clkgen\.delay_100ns_2\._siga_\[18\]
*337 clkgen\.delay_100ns_2\._siga_\[19\]
*338 clkgen\.delay_100ns_2\._siga_\[1\]
*339 clkgen\.delay_100ns_2\._siga_\[2\]
*340 clkgen\.delay_100ns_2\._siga_\[3\]
*341 clkgen\.delay_100ns_2\._siga_\[4\]
*342 clkgen\.delay_100ns_2\._siga_\[5\]
*343 clkgen\.delay_100ns_2\._siga_\[6\]
*344 clkgen\.delay_100ns_2\._siga_\[7\]
*345 clkgen\.delay_100ns_2\._siga_\[8\]
*346 clkgen\.delay_100ns_2\._siga_\[9\]
*347 clkgen\.delay_100ns_2\._sigb_\[0\]
*348 clkgen\.delay_100ns_2\._sigb_\[10\]
*349 clkgen\.delay_100ns_2\._sigb_\[11\]
*350 clkgen\.delay_100ns_2\._sigb_\[12\]
*351 clkgen\.delay_100ns_2\._sigb_\[13\]
*352 clkgen\.delay_100ns_2\._sigb_\[14\]
*353 clkgen\.delay_100ns_2\._sigb_\[15\]
*354 clkgen\.delay_100ns_2\._sigb_\[16\]
*355 clkgen\.delay_100ns_2\._sigb_\[17\]
*356 clkgen\.delay_100ns_2\._sigb_\[18\]
*357 clkgen\.delay_100ns_2\._sigb_\[19\]
*358 clkgen\.delay_100ns_2\._sigb_\[1\]
*359 clkgen\.delay_100ns_2\._sigb_\[2\]
*360 clkgen\.delay_100ns_2\._sigb_\[3\]
*361 clkgen\.delay_100ns_2\._sigb_\[4\]
*362 clkgen\.delay_100ns_2\._sigb_\[5\]
*363 clkgen\.delay_100ns_2\._sigb_\[6\]
*364 clkgen\.delay_100ns_2\._sigb_\[7\]
*365 clkgen\.delay_100ns_2\._sigb_\[8\]
*366 clkgen\.delay_100ns_2\._sigb_\[9\]
*367 clkgen\.delay_100ns_2\._sigc_\[0\]
*368 clkgen\.delay_100ns_2\._sigc_\[10\]
*369 clkgen\.delay_100ns_2\._sigc_\[11\]
*370 clkgen\.delay_100ns_2\._sigc_\[12\]
*371 clkgen\.delay_100ns_2\._sigc_\[13\]
*372 clkgen\.delay_100ns_2\._sigc_\[14\]
*373 clkgen\.delay_100ns_2\._sigc_\[15\]
*374 clkgen\.delay_100ns_2\._sigc_\[16\]
*375 clkgen\.delay_100ns_2\._sigc_\[17\]
*376 clkgen\.delay_100ns_2\._sigc_\[18\]
*377 clkgen\.delay_100ns_2\._sigc_\[19\]
*378 clkgen\.delay_100ns_2\._sigc_\[1\]
*379 clkgen\.delay_100ns_2\._sigc_\[2\]
*380 clkgen\.delay_100ns_2\._sigc_\[3\]
*381 clkgen\.delay_100ns_2\._sigc_\[4\]
*382 clkgen\.delay_100ns_2\._sigc_\[5\]
*383 clkgen\.delay_100ns_2\._sigc_\[6\]
*384 clkgen\.delay_100ns_2\._sigc_\[7\]
*385 clkgen\.delay_100ns_2\._sigc_\[8\]
*386 clkgen\.delay_100ns_2\._sigc_\[9\]
*387 clkgen\.delay_100ns_3\._bypass_\[0\]
*388 clkgen\.delay_100ns_3\._bypass_\[10\]
*389 clkgen\.delay_100ns_3\._bypass_\[11\]
*390 clkgen\.delay_100ns_3\._bypass_\[12\]
*391 clkgen\.delay_100ns_3\._bypass_\[13\]
*392 clkgen\.delay_100ns_3\._bypass_\[14\]
*393 clkgen\.delay_100ns_3\._bypass_\[15\]
*394 clkgen\.delay_100ns_3\._bypass_\[16\]
*395 clkgen\.delay_100ns_3\._bypass_\[17\]
*396 clkgen\.delay_100ns_3\._bypass_\[18\]
*397 clkgen\.delay_100ns_3\._bypass_\[19\]
*398 clkgen\.delay_100ns_3\._bypass_\[1\]
*399 clkgen\.delay_100ns_3\._bypass_\[2\]
*400 clkgen\.delay_100ns_3\._bypass_\[3\]
*401 clkgen\.delay_100ns_3\._bypass_\[4\]
*402 clkgen\.delay_100ns_3\._bypass_\[5\]
*403 clkgen\.delay_100ns_3\._bypass_\[6\]
*404 clkgen\.delay_100ns_3\._bypass_\[7\]
*405 clkgen\.delay_100ns_3\._bypass_\[8\]
*406 clkgen\.delay_100ns_3\._bypass_\[9\]
*407 clkgen\.delay_100ns_3\._siga_\[10\]
*408 clkgen\.delay_100ns_3\._siga_\[11\]
*409 clkgen\.delay_100ns_3\._siga_\[12\]
*410 clkgen\.delay_100ns_3\._siga_\[13\]
*411 clkgen\.delay_100ns_3\._siga_\[14\]
*412 clkgen\.delay_100ns_3\._siga_\[15\]
*413 clkgen\.delay_100ns_3\._siga_\[16\]
*414 clkgen\.delay_100ns_3\._siga_\[17\]
*415 clkgen\.delay_100ns_3\._siga_\[18\]
*416 clkgen\.delay_100ns_3\._siga_\[19\]
*417 clkgen\.delay_100ns_3\._siga_\[1\]
*418 clkgen\.delay_100ns_3\._siga_\[2\]
*419 clkgen\.delay_100ns_3\._siga_\[3\]
*420 clkgen\.delay_100ns_3\._siga_\[4\]
*421 clkgen\.delay_100ns_3\._siga_\[5\]
*422 clkgen\.delay_100ns_3\._siga_\[6\]
*423 clkgen\.delay_100ns_3\._siga_\[7\]
*424 clkgen\.delay_100ns_3\._siga_\[8\]
*425 clkgen\.delay_100ns_3\._siga_\[9\]
*426 clkgen\.delay_100ns_3\._sigb_\[0\]
*427 clkgen\.delay_100ns_3\._sigb_\[10\]
*428 clkgen\.delay_100ns_3\._sigb_\[11\]
*429 clkgen\.delay_100ns_3\._sigb_\[12\]
*430 clkgen\.delay_100ns_3\._sigb_\[13\]
*431 clkgen\.delay_100ns_3\._sigb_\[14\]
*432 clkgen\.delay_100ns_3\._sigb_\[15\]
*433 clkgen\.delay_100ns_3\._sigb_\[16\]
*434 clkgen\.delay_100ns_3\._sigb_\[17\]
*435 clkgen\.delay_100ns_3\._sigb_\[18\]
*436 clkgen\.delay_100ns_3\._sigb_\[19\]
*437 clkgen\.delay_100ns_3\._sigb_\[1\]
*438 clkgen\.delay_100ns_3\._sigb_\[2\]
*439 clkgen\.delay_100ns_3\._sigb_\[3\]
*440 clkgen\.delay_100ns_3\._sigb_\[4\]
*441 clkgen\.delay_100ns_3\._sigb_\[5\]
*442 clkgen\.delay_100ns_3\._sigb_\[6\]
*443 clkgen\.delay_100ns_3\._sigb_\[7\]
*444 clkgen\.delay_100ns_3\._sigb_\[8\]
*445 clkgen\.delay_100ns_3\._sigb_\[9\]
*446 clkgen\.delay_100ns_3\._sigc_\[0\]
*447 clkgen\.delay_100ns_3\._sigc_\[10\]
*448 clkgen\.delay_100ns_3\._sigc_\[11\]
*449 clkgen\.delay_100ns_3\._sigc_\[12\]
*450 clkgen\.delay_100ns_3\._sigc_\[13\]
*451 clkgen\.delay_100ns_3\._sigc_\[14\]
*452 clkgen\.delay_100ns_3\._sigc_\[15\]
*453 clkgen\.delay_100ns_3\._sigc_\[16\]
*454 clkgen\.delay_100ns_3\._sigc_\[17\]
*455 clkgen\.delay_100ns_3\._sigc_\[18\]
*456 clkgen\.delay_100ns_3\._sigc_\[19\]
*457 clkgen\.delay_100ns_3\._sigc_\[1\]
*458 clkgen\.delay_100ns_3\._sigc_\[2\]
*459 clkgen\.delay_100ns_3\._sigc_\[3\]
*460 clkgen\.delay_100ns_3\._sigc_\[4\]
*461 clkgen\.delay_100ns_3\._sigc_\[5\]
*462 clkgen\.delay_100ns_3\._sigc_\[6\]
*463 clkgen\.delay_100ns_3\._sigc_\[7\]
*464 clkgen\.delay_100ns_3\._sigc_\[8\]
*465 clkgen\.delay_100ns_3\._sigc_\[9\]
*466 edgedetect\._start_conv_delayed_
*467 edgedetect\.dly200cell\._bypass_\[0\]
*468 edgedetect\.dly200cell\._bypass_\[10\]
*469 edgedetect\.dly200cell\._bypass_\[11\]
*470 edgedetect\.dly200cell\._bypass_\[12\]
*471 edgedetect\.dly200cell\._bypass_\[13\]
*472 edgedetect\.dly200cell\._bypass_\[14\]
*473 edgedetect\.dly200cell\._bypass_\[15\]
*474 edgedetect\.dly200cell\._bypass_\[16\]
*475 edgedetect\.dly200cell\._bypass_\[17\]
*476 edgedetect\.dly200cell\._bypass_\[18\]
*477 edgedetect\.dly200cell\._bypass_\[19\]
*478 edgedetect\.dly200cell\._bypass_\[1\]
*479 edgedetect\.dly200cell\._bypass_\[20\]
*480 edgedetect\.dly200cell\._bypass_\[21\]
*481 edgedetect\.dly200cell\._bypass_\[22\]
*482 edgedetect\.dly200cell\._bypass_\[23\]
*483 edgedetect\.dly200cell\._bypass_\[24\]
*484 edgedetect\.dly200cell\._bypass_\[25\]
*485 edgedetect\.dly200cell\._bypass_\[26\]
*486 edgedetect\.dly200cell\._bypass_\[27\]
*487 edgedetect\.dly200cell\._bypass_\[28\]
*488 edgedetect\.dly200cell\._bypass_\[29\]
*489 edgedetect\.dly200cell\._bypass_\[2\]
*490 edgedetect\.dly200cell\._bypass_\[30\]
*491 edgedetect\.dly200cell\._bypass_\[31\]
*492 edgedetect\.dly200cell\._bypass_\[32\]
*493 edgedetect\.dly200cell\._bypass_\[33\]
*494 edgedetect\.dly200cell\._bypass_\[34\]
*495 edgedetect\.dly200cell\._bypass_\[35\]
*496 edgedetect\.dly200cell\._bypass_\[36\]
*497 edgedetect\.dly200cell\._bypass_\[37\]
*498 edgedetect\.dly200cell\._bypass_\[38\]
*499 edgedetect\.dly200cell\._bypass_\[39\]
*500 edgedetect\.dly200cell\._bypass_\[3\]
*501 edgedetect\.dly200cell\._bypass_\[4\]
*502 edgedetect\.dly200cell\._bypass_\[5\]
*503 edgedetect\.dly200cell\._bypass_\[6\]
*504 edgedetect\.dly200cell\._bypass_\[7\]
*505 edgedetect\.dly200cell\._bypass_\[8\]
*506 edgedetect\.dly200cell\._bypass_\[9\]
*507 edgedetect\.dly200cell\._siga_\[0\]
*508 edgedetect\.dly200cell\._siga_\[10\]
*509 edgedetect\.dly200cell\._siga_\[11\]
*510 edgedetect\.dly200cell\._siga_\[12\]
*511 edgedetect\.dly200cell\._siga_\[13\]
*512 edgedetect\.dly200cell\._siga_\[14\]
*513 edgedetect\.dly200cell\._siga_\[15\]
*514 edgedetect\.dly200cell\._siga_\[16\]
*515 edgedetect\.dly200cell\._siga_\[17\]
*516 edgedetect\.dly200cell\._siga_\[18\]
*517 edgedetect\.dly200cell\._siga_\[19\]
*518 edgedetect\.dly200cell\._siga_\[1\]
*519 edgedetect\.dly200cell\._siga_\[20\]
*520 edgedetect\.dly200cell\._siga_\[21\]
*521 edgedetect\.dly200cell\._siga_\[22\]
*522 edgedetect\.dly200cell\._siga_\[23\]
*523 edgedetect\.dly200cell\._siga_\[24\]
*524 edgedetect\.dly200cell\._siga_\[25\]
*525 edgedetect\.dly200cell\._siga_\[26\]
*526 edgedetect\.dly200cell\._siga_\[27\]
*527 edgedetect\.dly200cell\._siga_\[28\]
*528 edgedetect\.dly200cell\._siga_\[29\]
*529 edgedetect\.dly200cell\._siga_\[2\]
*530 edgedetect\.dly200cell\._siga_\[30\]
*531 edgedetect\.dly200cell\._siga_\[31\]
*532 edgedetect\.dly200cell\._siga_\[32\]
*533 edgedetect\.dly200cell\._siga_\[33\]
*534 edgedetect\.dly200cell\._siga_\[34\]
*535 edgedetect\.dly200cell\._siga_\[35\]
*536 edgedetect\.dly200cell\._siga_\[36\]
*537 edgedetect\.dly200cell\._siga_\[37\]
*538 edgedetect\.dly200cell\._siga_\[38\]
*539 edgedetect\.dly200cell\._siga_\[39\]
*540 edgedetect\.dly200cell\._siga_\[3\]
*541 edgedetect\.dly200cell\._siga_\[4\]
*542 edgedetect\.dly200cell\._siga_\[5\]
*543 edgedetect\.dly200cell\._siga_\[6\]
*544 edgedetect\.dly200cell\._siga_\[7\]
*545 edgedetect\.dly200cell\._siga_\[8\]
*546 edgedetect\.dly200cell\._siga_\[9\]
*547 edgedetect\.dly200cell\._sigb_\[0\]
*548 edgedetect\.dly200cell\._sigb_\[10\]
*549 edgedetect\.dly200cell\._sigb_\[11\]
*550 edgedetect\.dly200cell\._sigb_\[12\]
*551 edgedetect\.dly200cell\._sigb_\[13\]
*552 edgedetect\.dly200cell\._sigb_\[14\]
*553 edgedetect\.dly200cell\._sigb_\[15\]
*554 edgedetect\.dly200cell\._sigb_\[16\]
*555 edgedetect\.dly200cell\._sigb_\[17\]
*556 edgedetect\.dly200cell\._sigb_\[18\]
*557 edgedetect\.dly200cell\._sigb_\[19\]
*558 edgedetect\.dly200cell\._sigb_\[1\]
*559 edgedetect\.dly200cell\._sigb_\[20\]
*560 edgedetect\.dly200cell\._sigb_\[21\]
*561 edgedetect\.dly200cell\._sigb_\[22\]
*562 edgedetect\.dly200cell\._sigb_\[23\]
*563 edgedetect\.dly200cell\._sigb_\[24\]
*564 edgedetect\.dly200cell\._sigb_\[25\]
*565 edgedetect\.dly200cell\._sigb_\[26\]
*566 edgedetect\.dly200cell\._sigb_\[27\]
*567 edgedetect\.dly200cell\._sigb_\[28\]
*568 edgedetect\.dly200cell\._sigb_\[29\]
*569 edgedetect\.dly200cell\._sigb_\[2\]
*570 edgedetect\.dly200cell\._sigb_\[30\]
*571 edgedetect\.dly200cell\._sigb_\[31\]
*572 edgedetect\.dly200cell\._sigb_\[32\]
*573 edgedetect\.dly200cell\._sigb_\[33\]
*574 edgedetect\.dly200cell\._sigb_\[34\]
*575 edgedetect\.dly200cell\._sigb_\[35\]
*576 edgedetect\.dly200cell\._sigb_\[36\]
*577 edgedetect\.dly200cell\._sigb_\[37\]
*578 edgedetect\.dly200cell\._sigb_\[38\]
*579 edgedetect\.dly200cell\._sigb_\[39\]
*580 edgedetect\.dly200cell\._sigb_\[3\]
*581 edgedetect\.dly200cell\._sigb_\[4\]
*582 edgedetect\.dly200cell\._sigb_\[5\]
*583 edgedetect\.dly200cell\._sigb_\[6\]
*584 edgedetect\.dly200cell\._sigb_\[7\]
*585 edgedetect\.dly200cell\._sigb_\[8\]
*586 edgedetect\.dly200cell\._sigb_\[9\]
*587 edgedetect\.dly200cell\._sigc_\[0\]
*588 edgedetect\.dly200cell\._sigc_\[10\]
*589 edgedetect\.dly200cell\._sigc_\[11\]
*590 edgedetect\.dly200cell\._sigc_\[12\]
*591 edgedetect\.dly200cell\._sigc_\[13\]
*592 edgedetect\.dly200cell\._sigc_\[14\]
*593 edgedetect\.dly200cell\._sigc_\[15\]
*594 edgedetect\.dly200cell\._sigc_\[16\]
*595 edgedetect\.dly200cell\._sigc_\[17\]
*596 edgedetect\.dly200cell\._sigc_\[18\]
*597 edgedetect\.dly200cell\._sigc_\[19\]
*598 edgedetect\.dly200cell\._sigc_\[1\]
*599 edgedetect\.dly200cell\._sigc_\[20\]
*600 edgedetect\.dly200cell\._sigc_\[21\]
*601 edgedetect\.dly200cell\._sigc_\[22\]
*602 edgedetect\.dly200cell\._sigc_\[23\]
*603 edgedetect\.dly200cell\._sigc_\[24\]
*604 edgedetect\.dly200cell\._sigc_\[25\]
*605 edgedetect\.dly200cell\._sigc_\[26\]
*606 edgedetect\.dly200cell\._sigc_\[27\]
*607 edgedetect\.dly200cell\._sigc_\[28\]
*608 edgedetect\.dly200cell\._sigc_\[29\]
*609 edgedetect\.dly200cell\._sigc_\[2\]
*610 edgedetect\.dly200cell\._sigc_\[30\]
*611 edgedetect\.dly200cell\._sigc_\[31\]
*612 edgedetect\.dly200cell\._sigc_\[32\]
*613 edgedetect\.dly200cell\._sigc_\[33\]
*614 edgedetect\.dly200cell\._sigc_\[34\]
*615 edgedetect\.dly200cell\._sigc_\[35\]
*616 edgedetect\.dly200cell\._sigc_\[36\]
*617 edgedetect\.dly200cell\._sigc_\[37\]
*618 edgedetect\.dly200cell\._sigc_\[38\]
*619 edgedetect\.dly200cell\._sigc_\[39\]
*620 edgedetect\.dly200cell\._sigc_\[3\]
*621 edgedetect\.dly200cell\._sigc_\[4\]
*622 edgedetect\.dly200cell\._sigc_\[5\]
*623 edgedetect\.dly200cell\._sigc_\[6\]
*624 edgedetect\.dly200cell\._sigc_\[7\]
*625 edgedetect\.dly200cell\._sigc_\[8\]
*626 edgedetect\.dly200cell\._sigc_\[9\]
*627 edgedetect\.ena_in
*628 ANTENNA_1
*629 ANTENNA_10
*630 ANTENNA_11
*631 ANTENNA_12
*632 ANTENNA_2
*633 ANTENNA_3
*634 ANTENNA_4
*635 ANTENNA_5
*636 ANTENNA_6
*637 ANTENNA_7
*638 ANTENNA_8
*639 ANTENNA_9
*640 FILLER_0_100
*641 FILLER_0_106
*642 FILLER_0_119
*643 FILLER_0_123
*644 FILLER_0_125
*645 FILLER_0_13
*646 FILLER_0_132
*647 FILLER_0_141
*648 FILLER_0_147
*649 FILLER_0_153
*650 FILLER_0_156
*651 FILLER_0_169
*652 FILLER_0_178
*653 FILLER_0_187
*654 FILLER_0_194
*655 FILLER_0_20
*656 FILLER_0_203
*657 FILLER_0_212
*658 FILLER_0_216
*659 FILLER_0_223
*660 FILLER_0_227
*661 FILLER_0_234
*662 FILLER_0_241
*663 FILLER_0_247
*664 FILLER_0_249
*665 FILLER_0_254
*666 FILLER_0_261
*667 FILLER_0_268
*668 FILLER_0_275
*669 FILLER_0_280
*670 FILLER_0_285
*671 FILLER_0_29
*672 FILLER_0_297
*673 FILLER_0_3
*674 FILLER_0_309
*675 FILLER_0_311
*676 FILLER_0_32
*677 FILLER_0_323
*678 FILLER_0_335
*679 FILLER_0_342
*680 FILLER_0_354
*681 FILLER_0_366
*682 FILLER_0_373
*683 FILLER_0_59
*684 FILLER_0_63
*685 FILLER_0_74
*686 FILLER_0_83
*687 FILLER_0_87
*688 FILLER_0_9
*689 FILLER_0_91
*690 FILLER_0_94
*691 FILLER_10_100
*692 FILLER_10_111
*693 FILLER_10_140
*694 FILLER_10_153
*695 FILLER_10_156
*696 FILLER_10_16
*697 FILLER_10_168
*698 FILLER_10_199
*699 FILLER_10_205
*700 FILLER_10_215
*701 FILLER_10_218
*702 FILLER_10_225
*703 FILLER_10_233
*704 FILLER_10_260
*705 FILLER_10_269
*706 FILLER_10_276
*707 FILLER_10_280
*708 FILLER_10_285
*709 FILLER_10_29
*710 FILLER_10_3
*711 FILLER_10_314
*712 FILLER_10_32
*713 FILLER_10_327
*714 FILLER_10_336
*715 FILLER_10_340
*716 FILLER_10_342
*717 FILLER_10_347
*718 FILLER_10_354
*719 FILLER_10_366
*720 FILLER_10_378
*721 FILLER_10_43
*722 FILLER_10_47
*723 FILLER_10_54
*724 FILLER_10_65
*725 FILLER_10_78
*726 FILLER_10_89
*727 FILLER_10_94
*728 FILLER_11_100
*729 FILLER_11_108
*730 FILLER_11_12
*731 FILLER_11_122
*732 FILLER_11_125
*733 FILLER_11_152
*734 FILLER_11_158
*735 FILLER_11_184
*736 FILLER_11_187
*737 FILLER_11_198
*738 FILLER_11_206
*739 FILLER_11_212
*740 FILLER_11_225
*741 FILLER_11_240
*742 FILLER_11_249
*743 FILLER_11_260
*744 FILLER_11_269
*745 FILLER_11_277
*746 FILLER_11_286
*747 FILLER_11_295
*748 FILLER_11_3
*749 FILLER_11_308
*750 FILLER_11_311
*751 FILLER_11_318
*752 FILLER_11_327
*753 FILLER_11_336
*754 FILLER_11_343
*755 FILLER_11_350
*756 FILLER_11_362
*757 FILLER_11_370
*758 FILLER_11_373
*759 FILLER_11_41
*760 FILLER_11_45
*761 FILLER_11_49
*762 FILLER_11_60
*763 FILLER_11_63
*764 FILLER_11_69
*765 FILLER_11_82
*766 FILLER_11_94
*767 FILLER_12_108
*768 FILLER_12_137
*769 FILLER_12_150
*770 FILLER_12_154
*771 FILLER_12_156
*772 FILLER_12_168
*773 FILLER_12_18
*774 FILLER_12_185
*775 FILLER_12_193
*776 FILLER_12_202
*777 FILLER_12_213
*778 FILLER_12_218
*779 FILLER_12_249
*780 FILLER_12_260
*781 FILLER_12_267
*782 FILLER_12_277
*783 FILLER_12_280
*784 FILLER_12_29
*785 FILLER_12_290
*786 FILLER_12_3
*787 FILLER_12_303
*788 FILLER_12_32
*789 FILLER_12_332
*790 FILLER_12_339
*791 FILLER_12_342
*792 FILLER_12_347
*793 FILLER_12_359
*794 FILLER_12_371
*795 FILLER_12_38
*796 FILLER_12_44
*797 FILLER_12_53
*798 FILLER_12_82
*799 FILLER_12_9
*800 FILLER_12_91
*801 FILLER_12_94
*802 FILLER_12_99
*803 FILLER_13_104
*804 FILLER_13_111
*805 FILLER_13_122
*806 FILLER_13_125
*807 FILLER_13_138
*808 FILLER_13_142
*809 FILLER_13_168
*810 FILLER_13_179
*811 FILLER_13_18
*812 FILLER_13_185
*813 FILLER_13_187
*814 FILLER_13_193
*815 FILLER_13_204
*816 FILLER_13_233
*817 FILLER_13_246
*818 FILLER_13_249
*819 FILLER_13_258
*820 FILLER_13_264
*821 FILLER_13_271
*822 FILLER_13_282
*823 FILLER_13_293
*824 FILLER_13_3
*825 FILLER_13_308
*826 FILLER_13_311
*827 FILLER_13_338
*828 FILLER_13_345
*829 FILLER_13_350
*830 FILLER_13_354
*831 FILLER_13_359
*832 FILLER_13_371
*833 FILLER_13_373
*834 FILLER_13_47
*835 FILLER_13_60
*836 FILLER_13_63
*837 FILLER_13_9
*838 FILLER_13_96
*839 FILLER_14_111
*840 FILLER_14_118
*841 FILLER_14_127
*842 FILLER_14_138
*843 FILLER_14_153
*844 FILLER_14_156
*845 FILLER_14_16
*846 FILLER_14_166
*847 FILLER_14_173
*848 FILLER_14_184
*849 FILLER_14_215
*850 FILLER_14_218
*851 FILLER_14_225
*852 FILLER_14_229
*853 FILLER_14_255
*854 FILLER_14_259
*855 FILLER_14_266
*856 FILLER_14_277
*857 FILLER_14_280
*858 FILLER_14_289
*859 FILLER_14_29
*860 FILLER_14_293
*861 FILLER_14_3
*862 FILLER_14_303
*863 FILLER_14_32
*864 FILLER_14_332
*865 FILLER_14_339
*866 FILLER_14_342
*867 FILLER_14_347
*868 FILLER_14_359
*869 FILLER_14_371
*870 FILLER_14_43
*871 FILLER_14_50
*872 FILLER_14_59
*873 FILLER_14_7
*874 FILLER_14_88
*875 FILLER_14_92
*876 FILLER_14_94
*877 FILLER_15_114
*878 FILLER_15_118
*879 FILLER_15_122
*880 FILLER_15_125
*881 FILLER_15_132
*882 FILLER_15_161
*883 FILLER_15_167
*884 FILLER_15_173
*885 FILLER_15_183
*886 FILLER_15_187
*887 FILLER_15_194
*888 FILLER_15_212
*889 FILLER_15_225
*890 FILLER_15_229
*891 FILLER_15_235
*892 FILLER_15_246
*893 FILLER_15_249
*894 FILLER_15_260
*895 FILLER_15_273
*896 FILLER_15_281
*897 FILLER_15_3
*898 FILLER_15_308
*899 FILLER_15_31
*900 FILLER_15_311
*901 FILLER_15_322
*902 FILLER_15_329
*903 FILLER_15_336
*904 FILLER_15_343
*905 FILLER_15_355
*906 FILLER_15_367
*907 FILLER_15_371
*908 FILLER_15_373
*909 FILLER_15_60
*910 FILLER_15_63
*911 FILLER_15_76
*912 FILLER_15_85
*913 FILLER_16_101
*914 FILLER_16_114
*915 FILLER_16_122
*916 FILLER_16_148
*917 FILLER_16_154
*918 FILLER_16_156
*919 FILLER_16_16
*920 FILLER_16_183
*921 FILLER_16_212
*922 FILLER_16_216
*923 FILLER_16_218
*924 FILLER_16_229
*925 FILLER_16_238
*926 FILLER_16_246
*927 FILLER_16_273
*928 FILLER_16_280
*929 FILLER_16_285
*930 FILLER_16_289
*931 FILLER_16_29
*932 FILLER_16_3
*933 FILLER_16_315
*934 FILLER_16_32
*935 FILLER_16_324
*936 FILLER_16_331
*937 FILLER_16_339
*938 FILLER_16_342
*939 FILLER_16_354
*940 FILLER_16_366
*941 FILLER_16_378
*942 FILLER_16_38
*943 FILLER_16_51
*944 FILLER_16_80
*945 FILLER_16_91
*946 FILLER_16_94
*947 FILLER_17_10
*948 FILLER_17_114
*949 FILLER_17_118
*950 FILLER_17_122
*951 FILLER_17_125
*952 FILLER_17_134
*953 FILLER_17_145
*954 FILLER_17_158
*955 FILLER_17_169
*956 FILLER_17_184
*957 FILLER_17_187
*958 FILLER_17_19
*959 FILLER_17_192
*960 FILLER_17_205
*961 FILLER_17_234
*962 FILLER_17_243
*963 FILLER_17_247
*964 FILLER_17_249
*965 FILLER_17_28
*966 FILLER_17_280
*967 FILLER_17_289
*968 FILLER_17_3
*969 FILLER_17_302
*970 FILLER_17_311
*971 FILLER_17_316
*972 FILLER_17_323
*973 FILLER_17_330
*974 FILLER_17_337
*975 FILLER_17_349
*976 FILLER_17_361
*977 FILLER_17_369
*978 FILLER_17_373
*979 FILLER_17_57
*980 FILLER_17_61
*981 FILLER_17_63
*982 FILLER_17_74
*983 FILLER_17_85
*984 FILLER_18_101
*985 FILLER_18_112
*986 FILLER_18_141
*987 FILLER_18_152
*988 FILLER_18_156
*989 FILLER_18_16
*990 FILLER_18_167
*991 FILLER_18_175
*992 FILLER_18_184
*993 FILLER_18_195
*994 FILLER_18_206
*995 FILLER_18_215
*996 FILLER_18_218
*997 FILLER_18_249
*998 FILLER_18_258
*999 FILLER_18_271
*1000 FILLER_18_280
*1001 FILLER_18_29
*1002 FILLER_18_3
*1003 FILLER_18_307
*1004 FILLER_18_316
*1005 FILLER_18_32
*1006 FILLER_18_325
*1007 FILLER_18_332
*1008 FILLER_18_340
*1009 FILLER_18_342
*1010 FILLER_18_354
*1011 FILLER_18_366
*1012 FILLER_18_378
*1013 FILLER_18_43
*1014 FILLER_18_58
*1015 FILLER_18_69
*1016 FILLER_18_80
*1017 FILLER_18_91
*1018 FILLER_18_94
*1019 FILLER_19_108
*1020 FILLER_19_122
*1021 FILLER_19_125
*1022 FILLER_19_131
*1023 FILLER_19_157
*1024 FILLER_19_165
*1025 FILLER_19_173
*1026 FILLER_19_184
*1027 FILLER_19_187
*1028 FILLER_19_202
*1029 FILLER_19_213
*1030 FILLER_19_219
*1031 FILLER_19_227
*1032 FILLER_19_240
*1033 FILLER_19_249
*1034 FILLER_19_258
*1035 FILLER_19_267
*1036 FILLER_19_276
*1037 FILLER_19_280
*1038 FILLER_19_290
*1039 FILLER_19_3
*1040 FILLER_19_30
*1041 FILLER_19_305
*1042 FILLER_19_309
*1043 FILLER_19_311
*1044 FILLER_19_316
*1045 FILLER_19_323
*1046 FILLER_19_330
*1047 FILLER_19_337
*1048 FILLER_19_349
*1049 FILLER_19_361
*1050 FILLER_19_369
*1051 FILLER_19_373
*1052 FILLER_19_59
*1053 FILLER_19_63
*1054 FILLER_19_71
*1055 FILLER_19_83
*1056 FILLER_19_89
*1057 FILLER_19_97
*1058 FILLER_1_122
*1059 FILLER_1_125
*1060 FILLER_1_132
*1061 FILLER_1_141
*1062 FILLER_1_15
*1063 FILLER_1_170
*1064 FILLER_1_179
*1065 FILLER_1_185
*1066 FILLER_1_187
*1067 FILLER_1_194
*1068 FILLER_1_203
*1069 FILLER_1_212
*1070 FILLER_1_221
*1071 FILLER_1_226
*1072 FILLER_1_230
*1073 FILLER_1_238
*1074 FILLER_1_24
*1075 FILLER_1_245
*1076 FILLER_1_249
*1077 FILLER_1_254
*1078 FILLER_1_263
*1079 FILLER_1_270
*1080 FILLER_1_277
*1081 FILLER_1_282
*1082 FILLER_1_286
*1083 FILLER_1_291
*1084 FILLER_1_295
*1085 FILLER_1_3
*1086 FILLER_1_307
*1087 FILLER_1_311
*1088 FILLER_1_323
*1089 FILLER_1_326
*1090 FILLER_1_334
*1091 FILLER_1_346
*1092 FILLER_1_358
*1093 FILLER_1_370
*1094 FILLER_1_373
*1095 FILLER_1_53
*1096 FILLER_1_60
*1097 FILLER_1_63
*1098 FILLER_1_67
*1099 FILLER_1_9
*1100 FILLER_1_93
*1101 FILLER_20_100
*1102 FILLER_20_108
*1103 FILLER_20_112
*1104 FILLER_20_120
*1105 FILLER_20_128
*1106 FILLER_20_138
*1107 FILLER_20_151
*1108 FILLER_20_156
*1109 FILLER_20_163
*1110 FILLER_20_18
*1111 FILLER_20_192
*1112 FILLER_20_203
*1113 FILLER_20_214
*1114 FILLER_20_218
*1115 FILLER_20_247
*1116 FILLER_20_260
*1117 FILLER_20_269
*1118 FILLER_20_276
*1119 FILLER_20_280
*1120 FILLER_20_29
*1121 FILLER_20_3
*1122 FILLER_20_307
*1123 FILLER_20_316
*1124 FILLER_20_32
*1125 FILLER_20_321
*1126 FILLER_20_325
*1127 FILLER_20_330
*1128 FILLER_20_337
*1129 FILLER_20_342
*1130 FILLER_20_354
*1131 FILLER_20_366
*1132 FILLER_20_378
*1133 FILLER_20_59
*1134 FILLER_20_69
*1135 FILLER_20_80
*1136 FILLER_20_91
*1137 FILLER_20_94
*1138 FILLER_21_109
*1139 FILLER_21_120
*1140 FILLER_21_125
*1141 FILLER_21_132
*1142 FILLER_21_161
*1143 FILLER_21_165
*1144 FILLER_21_173
*1145 FILLER_21_184
*1146 FILLER_21_187
*1147 FILLER_21_198
*1148 FILLER_21_229
*1149 FILLER_21_233
*1150 FILLER_21_243
*1151 FILLER_21_247
*1152 FILLER_21_249
*1153 FILLER_21_282
*1154 FILLER_21_295
*1155 FILLER_21_3
*1156 FILLER_21_308
*1157 FILLER_21_311
*1158 FILLER_21_316
*1159 FILLER_21_323
*1160 FILLER_21_330
*1161 FILLER_21_337
*1162 FILLER_21_349
*1163 FILLER_21_361
*1164 FILLER_21_369
*1165 FILLER_21_37
*1166 FILLER_21_373
*1167 FILLER_21_50
*1168 FILLER_21_54
*1169 FILLER_21_60
*1170 FILLER_21_63
*1171 FILLER_21_69
*1172 FILLER_21_77
*1173 FILLER_21_8
*1174 FILLER_21_89
*1175 FILLER_21_98
*1176 FILLER_22_108
*1177 FILLER_22_118
*1178 FILLER_22_129
*1179 FILLER_22_140
*1180 FILLER_22_153