*SPEF "ieee 1481-1999"
*DESIGN "adc_clkgen_with_edgedetect"
*DATE "11:11:11 Fri 11 11, 1111"
*VENDOR "OpenRCX"
*PROGRAM "Parallel Extraction"
*VERSION "1.0"
*DESIGN_FLOW "NAME_SCOPE LOCAL" "PIN_CAP NONE"
*DIVIDER /
*DELIMITER :
*BUS_DELIMITER []
*T_UNIT 1 NS
*C_UNIT 1 PF
*R_UNIT 1 OHM
*L_UNIT 1 HENRY

*NAME_MAP
*3 clk_comp
*4 clk_dig
*5 comp_trig
*6 ena_in
*7 start_conv
*10 _0_
*11 clkgen\.comp_trig_delayed
*12 clkgen\.delay_100ns_1\._intsig_a_\[10\]
*13 clkgen\.delay_100ns_1\._intsig_a_\[11\]
*14 clkgen\.delay_100ns_1\._intsig_a_\[12\]
*15 clkgen\.delay_100ns_1\._intsig_a_\[13\]
*16 clkgen\.delay_100ns_1\._intsig_a_\[14\]
*17 clkgen\.delay_100ns_1\._intsig_a_\[15\]
*18 clkgen\.delay_100ns_1\._intsig_a_\[16\]
*19 clkgen\.delay_100ns_1\._intsig_a_\[17\]
*20 clkgen\.delay_100ns_1\._intsig_a_\[2\]
*21 clkgen\.delay_100ns_1\._intsig_a_\[3\]
*22 clkgen\.delay_100ns_1\._intsig_a_\[4\]
*23 clkgen\.delay_100ns_1\._intsig_a_\[5\]
*24 clkgen\.delay_100ns_1\._intsig_a_\[6\]
*25 clkgen\.delay_100ns_1\._intsig_a_\[7\]
*26 clkgen\.delay_100ns_1\._intsig_a_\[8\]
*27 clkgen\.delay_100ns_1\._intsig_a_\[9\]
*28 clkgen\.delay_100ns_2\._intsig_a_\[10\]
*29 clkgen\.delay_100ns_2\._intsig_a_\[11\]
*30 clkgen\.delay_100ns_2\._intsig_a_\[12\]
*31 clkgen\.delay_100ns_2\._intsig_a_\[13\]
*32 clkgen\.delay_100ns_2\._intsig_a_\[14\]
*33 clkgen\.delay_100ns_2\._intsig_a_\[15\]
*34 clkgen\.delay_100ns_2\._intsig_a_\[16\]
*35 clkgen\.delay_100ns_2\._intsig_a_\[17\]
*36 clkgen\.delay_100ns_2\._intsig_a_\[2\]
*37 clkgen\.delay_100ns_2\._intsig_a_\[3\]
*38 clkgen\.delay_100ns_2\._intsig_a_\[4\]
*39 clkgen\.delay_100ns_2\._intsig_a_\[5\]
*40 clkgen\.delay_100ns_2\._intsig_a_\[6\]
*41 clkgen\.delay_100ns_2\._intsig_a_\[7\]
*42 clkgen\.delay_100ns_2\._intsig_a_\[8\]
*43 clkgen\.delay_100ns_2\._intsig_a_\[9\]
*44 clkgen\.delay_100ns_2\.out
*45 clkgen\.delay_100ns_3\._intsig_a_\[10\]
*46 clkgen\.delay_100ns_3\._intsig_a_\[11\]
*47 clkgen\.delay_100ns_3\._intsig_a_\[12\]
*48 clkgen\.delay_100ns_3\._intsig_a_\[13\]
*49 clkgen\.delay_100ns_3\._intsig_a_\[14\]
*50 clkgen\.delay_100ns_3\._intsig_a_\[15\]
*51 clkgen\.delay_100ns_3\._intsig_a_\[16\]
*52 clkgen\.delay_100ns_3\._intsig_a_\[17\]
*53 clkgen\.delay_100ns_3\._intsig_a_\[1\]
*54 clkgen\.delay_100ns_3\._intsig_a_\[2\]
*55 clkgen\.delay_100ns_3\._intsig_a_\[3\]
*56 clkgen\.delay_100ns_3\._intsig_a_\[4\]
*57 clkgen\.delay_100ns_3\._intsig_a_\[5\]
*58 clkgen\.delay_100ns_3\._intsig_a_\[6\]
*59 clkgen\.delay_100ns_3\._intsig_a_\[7\]
*60 clkgen\.delay_100ns_3\._intsig_a_\[8\]
*61 clkgen\.delay_100ns_3\._intsig_a_\[9\]
*62 edgedetect\.delay_200ns\._intsig_a_\[10\]
*63 edgedetect\.delay_200ns\._intsig_a_\[11\]
*64 edgedetect\.delay_200ns\._intsig_a_\[12\]
*65 edgedetect\.delay_200ns\._intsig_a_\[13\]
*66 edgedetect\.delay_200ns\._intsig_a_\[14\]
*67 edgedetect\.delay_200ns\._intsig_a_\[15\]
*68 edgedetect\.delay_200ns\._intsig_a_\[16\]
*69 edgedetect\.delay_200ns\._intsig_a_\[17\]
*70 edgedetect\.delay_200ns\._intsig_a_\[18\]
*71 edgedetect\.delay_200ns\._intsig_a_\[19\]
*72 edgedetect\.delay_200ns\._intsig_a_\[20\]
*73 edgedetect\.delay_200ns\._intsig_a_\[21\]
*74 edgedetect\.delay_200ns\._intsig_a_\[22\]
*75 edgedetect\.delay_200ns\._intsig_a_\[23\]
*76 edgedetect\.delay_200ns\._intsig_a_\[24\]
*77 edgedetect\.delay_200ns\._intsig_a_\[25\]
*78 edgedetect\.delay_200ns\._intsig_a_\[26\]
*79 edgedetect\.delay_200ns\._intsig_a_\[27\]
*80 edgedetect\.delay_200ns\._intsig_a_\[28\]
*81 edgedetect\.delay_200ns\._intsig_a_\[29\]
*82 edgedetect\.delay_200ns\._intsig_a_\[2\]
*83 edgedetect\.delay_200ns\._intsig_a_\[30\]
*84 edgedetect\.delay_200ns\._intsig_a_\[31\]
*85 edgedetect\.delay_200ns\._intsig_a_\[32\]
*86 edgedetect\.delay_200ns\._intsig_a_\[33\]
*87 edgedetect\.delay_200ns\._intsig_a_\[34\]
*88 edgedetect\.delay_200ns\._intsig_a_\[3\]
*89 edgedetect\.delay_200ns\._intsig_a_\[4\]
*90 edgedetect\.delay_200ns\._intsig_a_\[5\]
*91 edgedetect\.delay_200ns\._intsig_a_\[6\]
*92 edgedetect\.delay_200ns\._intsig_a_\[7\]
*93 edgedetect\.delay_200ns\._intsig_a_\[8\]
*94 edgedetect\.delay_200ns\._intsig_a_\[9\]
*95 edgedetect\.delay_200ns\.out
*96 FILLER_0_119
*97 FILLER_0_123
*98 FILLER_0_15
*99 FILLER_0_150
*100 FILLER_0_154
*101 FILLER_0_156
*102 FILLER_0_168
*103 FILLER_0_180
*104 FILLER_0_187
*105 FILLER_0_27
*106 FILLER_0_3
*107 FILLER_0_57
*108 FILLER_0_61
*109 FILLER_0_88
*110 FILLER_0_92
*111 FILLER_10_102
*112 FILLER_10_129
*113 FILLER_10_141
*114 FILLER_10_15
*115 FILLER_10_153
*116 FILLER_10_156
*117 FILLER_10_160
*118 FILLER_10_186
*119 FILLER_10_27
*120 FILLER_10_3
*121 FILLER_10_32
*122 FILLER_10_60
*123 FILLER_10_89
*124 FILLER_10_94
*125 FILLER_11_114
*126 FILLER_11_122
*127 FILLER_11_150
*128 FILLER_11_179
*129 FILLER_11_185
*130 FILLER_11_187
*131 FILLER_11_29
*132 FILLER_11_3
*133 FILLER_11_58
*134 FILLER_11_63
*135 FILLER_11_75
*136 FILLER_11_87
*137 FILLER_12_127
*138 FILLER_12_139
*139 FILLER_12_15
*140 FILLER_12_151
*141 FILLER_12_181
*142 FILLER_12_189
*143 FILLER_12_27
*144 FILLER_12_3
*145 FILLER_12_32
*146 FILLER_12_58
*147 FILLER_12_87
*148 FILLER_12_94
*149 FILLER_13_101
*150 FILLER_13_113
*151 FILLER_13_121
*152 FILLER_13_15
*153 FILLER_13_150
*154 FILLER_13_156
*155 FILLER_13_182
*156 FILLER_13_187
*157 FILLER_13_23
*158 FILLER_13_3
*159 FILLER_13_49
*160 FILLER_13_61
*161 FILLER_13_63
*162 FILLER_13_75
*163 FILLER_14_119
*164 FILLER_14_125
*165 FILLER_14_15
*166 FILLER_14_151
*167 FILLER_14_181
*168 FILLER_14_189
*169 FILLER_14_27
*170 FILLER_14_3
*171 FILLER_14_32
*172 FILLER_14_44
*173 FILLER_14_48
*174 FILLER_14_74
*175 FILLER_14_86
*176 FILLER_14_92
*177 FILLER_15_11
*178 FILLER_15_117
*179 FILLER_15_123
*180 FILLER_15_125
*181 FILLER_15_137
*182 FILLER_15_141
*183 FILLER_15_167
*184 FILLER_15_179
*185 FILLER_15_185
*186 FILLER_15_187
*187 FILLER_15_3
*188 FILLER_15_37
*189 FILLER_15_49
*190 FILLER_15_61
*191 FILLER_15_88
*192 FILLER_16_119
*193 FILLER_16_148
*194 FILLER_16_15
*195 FILLER_16_154
*196 FILLER_16_156
*197 FILLER_16_160
*198 FILLER_16_186
*199 FILLER_16_27
*200 FILLER_16_3
*201 FILLER_16_57
*202 FILLER_16_86
*203 FILLER_16_92
*204 FILLER_17_117
*205 FILLER_17_123
*206 FILLER_17_125
*207 FILLER_17_137
*208 FILLER_17_149
*209 FILLER_17_182
*210 FILLER_17_187
*211 FILLER_17_28
*212 FILLER_17_57
*213 FILLER_17_61
*214 FILLER_17_88
*215 FILLER_18_119
*216 FILLER_18_123
*217 FILLER_18_125
*218 FILLER_18_137
*219 FILLER_18_149
*220 FILLER_18_15
*221 FILLER_18_156
*222 FILLER_18_168
*223 FILLER_18_180
*224 FILLER_18_187
*225 FILLER_18_27
*226 FILLER_18_3
*227 FILLER_18_57
*228 FILLER_18_61
*229 FILLER_18_88
*230 FILLER_18_92
*231 FILLER_1_117
*232 FILLER_1_123
*233 FILLER_1_150
*234 FILLER_1_162
*235 FILLER_1_174
*236 FILLER_1_187
*237 FILLER_1_28
*238 FILLER_1_57
*239 FILLER_1_61
*240 FILLER_1_88
*241 FILLER_2_119
*242 FILLER_2_148
*243 FILLER_2_15
*244 FILLER_2_154
*245 FILLER_2_156
*246 FILLER_2_168
*247 FILLER_2_180
*248 FILLER_2_188
*249 FILLER_2_27
*250 FILLER_2_3
*251 FILLER_2_57
*252 FILLER_2_86
*253 FILLER_2_92
*254 FILLER_3_117
*255 FILLER_3_123
*256 FILLER_3_150
*257 FILLER_3_156
*258 FILLER_3_182
*259 FILLER_3_187
*260 FILLER_3_29
*261 FILLER_3_3
*262 FILLER_3_58
*263 FILLER_3_88
*264 FILLER_4_119
*265 FILLER_4_148
*266 FILLER_4_15
*267 FILLER_4_154
*268 FILLER_4_156
*269 FILLER_4_160
*270 FILLER_4_186
*271 FILLER_4_27
*272 FILLER_4_3
*273 FILLER_4_57
*274 FILLER_4_86
*275 FILLER_4_92
*276 FILLER_5_117
*277 FILLER_5_123
*278 FILLER_5_125
*279 FILLER_5_15
*280 FILLER_5_154
*281 FILLER_5_166
*282 FILLER_5_178
*283 FILLER_5_182
*284 FILLER_5_187
*285 FILLER_5_19
*286 FILLER_5_3
*287 FILLER_5_45
*288 FILLER_5_57
*289 FILLER_5_61
*290 FILLER_5_88
*291 FILLER_6_106
*292 FILLER_6_11
*293 FILLER_6_133
*294 FILLER_6_145
*295 FILLER_6_153
*296 FILLER_6_181
*297 FILLER_6_189
*298 FILLER_6_23
*299 FILLER_6_57
*300 FILLER_6_63
*301 FILLER_6_89
*302 FILLER_6_94
*303 FILLER_7_120
*304 FILLER_7_150
*305 FILLER_7_179
*306 FILLER_7_185
*307 FILLER_7_187
*308 FILLER_7_29
*309 FILLER_7_3
*310 FILLER_7_58
*311 FILLER_7_63
*312 FILLER_7_91
*313 FILLER_8_119
*314 FILLER_8_125
*315 FILLER_8_15
*316 FILLER_8_151
*317 FILLER_8_181
*318 FILLER_8_189
*319 FILLER_8_27
*320 FILLER_8_3
*321 FILLER_8_32
*322 FILLER_8_60
*323 FILLER_8_89
*324 FILLER_9_116
*325 FILLER_9_12
*326 FILLER_9_150
*327 FILLER_9_181
*328 FILLER_9_185
*329 FILLER_9_187
*330 FILLER_9_20
*331 FILLER_9_3
*332 FILLER_9_47
*333 FILLER_9_59
*334 FILLER_9_63
*335 FILLER_9_75
*336 FILLER_9_87
*337 PHY_0
*338 PHY_1
*339 PHY_10
*340 PHY_11
*341 PHY_12
*342 PHY_13
*343 PHY_14
*344 PHY_15
*345 PHY_16
*346 PHY_17
*347 PHY_18
*348 PHY_19
*349 PHY_2
*350 PHY_20
*351 PHY_21
*352 PHY_22
*353 PHY_23
*354 PHY_24
*355 PHY_25
*356 PHY_26
*357 PHY_27
*358 PHY_28
*359 PHY_29
*360 PHY_3
*361 PHY_30
*362 PHY_31
*363 PHY_32
*364 PHY_33
*365 PHY_34
*366 PHY_35
*367 PHY_36
*368 PHY_37
*369 PHY_4
*370 PHY_5
*371 PHY_6
*372 PHY_7
*373 PHY_8
*374 PHY_9
*375 TAP_100
*376 TAP_38
*377 TAP_39
*378 TAP_40
*379 TAP_41
*380 TAP_42
*381 TAP_43
*382 TAP_44
*383 TAP_45
*384 TAP_46
*385 TAP_47
*386 TAP_48
*387 TAP_49
*388 TAP_50
*389 TAP_51
*390 TAP_52
*391 TAP_53
*392 TAP_54
*393 TAP_55
*394 TAP_56
*395 TAP_57
*396 TAP_58
*397 TAP_59
*398 TAP_60
*399 TAP_61
*400 TAP_62
*401 TAP_63
*402 TAP_64
*403 TAP_65
*404 TAP_66
*405 TAP_67
*406 TAP_68
*407 TAP_69
*408 TAP_70
*409 TAP_71
*410 TAP_72
*411 TAP_73
*412 TAP_74
*413 TAP_75
*414 TAP_76
*415 TAP_77
*416 TAP_78
*417 TAP_79
*418 TAP_80
*419 TAP_81
*420 TAP_82
*421 TAP_83
*422 TAP_84
*423 TAP_85
*424 TAP_86
*425 TAP_87
*426 TAP_88
*427 TAP_89
*428 TAP_90
*429 TAP_91
*430 TAP_92
*431 TAP_93
*432 TAP_94
*433 TAP_95
*434 TAP_96
*435 TAP_97
*436 TAP_98
*437 TAP_99
*438 _1_
*439 _2_
*440 _3_
*441 clkgen\.delay_100ns_1\.genblk1\[10\]\.delay_unit
*442 clkgen\.delay_100ns_1\.genblk1\[11\]\.delay_unit
*443 clkgen\.delay_100ns_1\.genblk1\[12\]\.delay_unit
*444 clkgen\.delay_100ns_1\.genblk1\[13\]\.delay_unit
*445 clkgen\.delay_100ns_1\.genblk1\[14\]\.delay_unit
*446 clkgen\.delay_100ns_1\.genblk1\[15\]\.delay_unit
*447 clkgen\.delay_100ns_1\.genblk1\[16\]\.delay_unit
*448 clkgen\.delay_100ns_1\.genblk1\[17\]\.delay_unit
*449 clkgen\.delay_100ns_1\.genblk1\[1\]\.delay_unit
*450 clkgen\.delay_100ns_1\.genblk1\[2\]\.delay_unit
*451 clkgen\.delay_100ns_1\.genblk1\[3\]\.delay_unit
*452 clkgen\.delay_100ns_1\.genblk1\[4\]\.delay_unit
*453 clkgen\.delay_100ns_1\.genblk1\[5\]\.delay_unit
*454 clkgen\.delay_100ns_1\.genblk1\[6\]\.delay_unit
*455 clkgen\.delay_100ns_1\.genblk1\[7\]\.delay_unit
*456 clkgen\.delay_100ns_1\.genblk1\[8\]\.delay_unit
*457 clkgen\.delay_100ns_1\.genblk1\[9\]\.delay_unit
*458 clkgen\.delay_100ns_2\.genblk1\[10\]\.delay_unit
*459 clkgen\.delay_100ns_2\.genblk1\[11\]\.delay_unit
*460 clkgen\.delay_100ns_2\.genblk1\[12\]\.delay_unit
*461 clkgen\.delay_100ns_2\.genblk1\[13\]\.delay_unit
*462 clkgen\.delay_100ns_2\.genblk1\[14\]\.delay_unit
*463 clkgen\.delay_100ns_2\.genblk1\[15\]\.delay_unit
*464 clkgen\.delay_100ns_2\.genblk1\[16\]\.delay_unit
*465 clkgen\.delay_100ns_2\.genblk1\[17\]\.delay_unit
*466 clkgen\.delay_100ns_2\.genblk1\[1\]\.delay_unit
*467 clkgen\.delay_100ns_2\.genblk1\[2\]\.delay_unit
*468 clkgen\.delay_100ns_2\.genblk1\[3\]\.delay_unit
*469 clkgen\.delay_100ns_2\.genblk1\[4\]\.delay_unit
*470 clkgen\.delay_100ns_2\.genblk1\[5\]\.delay_unit
*471 clkgen\.delay_100ns_2\.genblk1\[6\]\.delay_unit
*472 clkgen\.delay_100ns_2\.genblk1\[7\]\.delay_unit
*473 clkgen\.delay_100ns_2\.genblk1\[8\]\.delay_unit
*474 clkgen\.delay_100ns_2\.genblk1\[9\]\.delay_unit
*475 clkgen\.delay_100ns_3\.genblk1\[10\]\.delay_unit
*476 clkgen\.delay_100ns_3\.genblk1\[11\]\.delay_unit
*477 clkgen\.delay_100ns_3\.genblk1\[12\]\.delay_unit
*478 clkgen\.delay_100ns_3\.genblk1\[13\]\.delay_unit
*479 clkgen\.delay_100ns_3\.genblk1\[14\]\.delay_unit
*480 clkgen\.delay_100ns_3\.genblk1\[15\]\.delay_unit
*481 clkgen\.delay_100ns_3\.genblk1\[16\]\.delay_unit
*482 clkgen\.delay_100ns_3\.genblk1\[17\]\.delay_unit
*483 clkgen\.delay_100ns_3\.genblk1\[1\]\.delay_unit
*484 clkgen\.delay_100ns_3\.genblk1\[2\]\.delay_unit
*485 clkgen\.delay_100ns_3\.genblk1\[3\]\.delay_unit
*486 clkgen\.delay_100ns_3\.genblk1\[4\]\.delay_unit
*487 clkgen\.delay_100ns_3\.genblk1\[5\]\.delay_unit
*488 clkgen\.delay_100ns_3\.genblk1\[6\]\.delay_unit
*489 clkgen\.delay_100ns_3\.genblk1\[7\]\.delay_unit
*490 clkgen\.delay_100ns_3\.genblk1\[8\]\.delay_unit
*491 clkgen\.delay_100ns_3\.genblk1\[9\]\.delay_unit
*492 edgedetect\.delay_200ns\.genblk1\[10\]\.delay_unit
*493 edgedetect\.delay_200ns\.genblk1\[11\]\.delay_unit
*494 edgedetect\.delay_200ns\.genblk1\[12\]\.delay_unit
*495 edgedetect\.delay_200ns\.genblk1\[13\]\.delay_unit
*496 edgedetect\.delay_200ns\.genblk1\[14\]\.delay_unit
*497 edgedetect\.delay_200ns\.genblk1\[15\]\.delay_unit
*498 edgedetect\.delay_200ns\.genblk1\[16\]\.delay_unit
*499 edgedetect\.delay_200ns\.genblk1\[17\]\.delay_unit
*500 edgedetect\.delay_200ns\.genblk1\[18\]\.delay_unit
*501 edgedetect\.delay_200ns\.genblk1\[19\]\.delay_unit
*502 edgedetect\.delay_200ns\.genblk1\[1\]\.delay_unit
*503 edgedetect\.delay_200ns\.genblk1\[20\]\.delay_unit
*504 edgedetect\.delay_200ns\.genblk1\[21\]\.delay_unit
*505 edgedetect\.delay_200ns\.genblk1\[22\]\.delay_unit
*506 edgedetect\.delay_200ns\.genblk1\[23\]\.delay_unit
*507 edgedetect\.delay_200ns\.genblk1\[24\]\.delay_unit
*508 edgedetect\.delay_200ns\.genblk1\[25\]\.delay_unit
*509 edgedetect\.delay_200ns\.genblk1\[26\]\.delay_unit
*510 edgedetect\.delay_200ns\.genblk1\[27\]\.delay_unit
*511 edgedetect\.delay_200ns\.genblk1\[28\]\.delay_unit
*512 edgedetect\.delay_200ns\.genblk1\[29\]\.delay_unit
*513 edgedetect\.delay_200ns\.genblk1\[2\]\.delay_unit
*514 edgedetect\.delay_200ns\.genblk1\[30\]\.delay_unit
*515 edgedetect\.delay_200ns\.genblk1\[31\]\.delay_unit
*516 edgedetect\.delay_200ns\.genblk1\[32\]\.delay_unit
*517 edgedetect\.delay_200ns\.genblk1\[33\]\.delay_unit
*518 edgedetect\.delay_200ns\.genblk1\[34\]\.delay_unit
*519 edgedetect\.delay_200ns\.genblk1\[3\]\.delay_unit
*520 edgedetect\.delay_200ns\.genblk1\[4\]\.delay_unit
*521 edgedetect\.delay_200ns\.genblk1\[5\]\.delay_unit
*522 edgedetect\.delay_200ns\.genblk1\[6\]\.delay_unit
*523 edgedetect\.delay_200ns\.genblk1\[7\]\.delay_unit
*524 edgedetect\.delay_200ns\.genblk1\[8\]\.delay_unit
*525 edgedetect\.delay_200ns\.genblk1\[9\]\.delay_unit

*PORTS
clk_comp O
clk_dig O
comp_trig I
ena_in I
start_conv I

*D_NET *3 0.00173036
*CONN
*P clk_comp O
*I *482:out O *D sky130_mm_sc_hd_dlyPoly6ns
*CAP
1 clk_comp 0.00086518
2 *482:out 0.00086518
3 clk_comp *52:16 0
*RES
1 *482:out clk_comp 22.4896 
*END

*D_NET *4 0.00127175
*CONN
*P clk_dig O
*I *466:in I *D sky130_mm_sc_hd_dlyPoly6ns
*I *438:Y O *D sky130_fd_sc_hd__inv_2
*CAP
1 clk_dig 0.000433711
2 *466:in 0
3 *438:Y 0.000202166
4 *4:8 0.000635877
5 *4:8 *438:A 0
6 *4:8 *448:in 0
*RES
1 *438:Y *4:8 18.4071 
2 *4:8 clk_dig 6.48931 
3 *4:8 *466:in 13.8 
*END

*D_NET *5 0.00199111
*CONN
*P comp_trig I
*I *449:in I *D sky130_mm_sc_hd_dlyPoly6ns
*CAP
1 comp_trig 0.000995557
2 *449:in 0.000995557
*RES
1 comp_trig *449:in 29.5623 
*END

*D_NET *6 0.00283185
*CONN
*P ena_in I
*I *440:A1 I *D sky130_fd_sc_hd__o21ba_2
*CAP
1 ena_in 0.00141593
2 *440:A1 0.00141593
3 *440:A1 *439:A_N 0
4 *440:A1 *440:B1_N 0
5 *440:A1 *463:in 0
6 *440:A1 *53:20 0
*RES
1 ena_in *440:A1 39.7574 
*END

*D_NET *7 0.00225733
*CONN
*P start_conv I
*I *439:B I *D sky130_fd_sc_hd__and2b_2
*I *502:in I *D sky130_mm_sc_hd_dlyPoly6ns
*CAP
1 start_conv 0.000294161
2 *439:B 0
3 *502:in 0.000834506
4 *7:8 0.00112867
5 *502:in *439:A_N 0
6 *502:in *440:A2 0
7 *502:in *440:B1_N 0
8 *502:in *485:in 0
9 *7:8 *439:A_N 0
*RES
1 start_conv *7:8 5.21826 
2 *7:8 *502:in 32.7464 
3 *7:8 *439:B 13.8 
*END

*D_NET *10 0.000650672
*CONN
*I *440:A2 I *D sky130_fd_sc_hd__o21ba_2
*I *439:X O *D sky130_fd_sc_hd__and2b_2
*CAP
1 *440:A2 0.000325336
2 *439:X 0.000325336
3 *502:in *440:A2 0
*RES
1 *439:X *440:A2 34.9393 
*END

*D_NET *11 0.000906779
*CONN
*I *438:A I *D sky130_fd_sc_hd__inv_2
*I *448:out O *D sky130_mm_sc_hd_dlyPoly6ns
*CAP
1 *438:A 0.00045339
2 *448:out 0.00045339
3 *438:A *467:in 0
4 *438:A *80:10 0
5 *4:8 *438:A 0
*RES
1 *448:out *438:A 37.3054 
*END

*D_NET *12 0.00110207
*CONN
*I *441:in I *D sky130_mm_sc_hd_dlyPoly6ns
*I *457:out O *D sky130_mm_sc_hd_dlyPoly6ns
*CAP
1 *441:in 0.000551033
2 *457:out 0.000551033
3 *441:in *497:in 0
4 *441:in *72:12 0
*RES
1 *457:out *441:in 39.2696 
*END

*D_NET *13 0.000184834
*CONN
*I *442:in I *D sky130_mm_sc_hd_dlyPoly6ns
*I *441:out O *D sky130_mm_sc_hd_dlyPoly6ns
*CAP
1 *442:in 9.2417e-05
2 *441:out 9.2417e-05
3 *442:in *509:in 0
4 *442:in *74:8 0
*RES
1 *441:out *442:in 29.6982 
*END

*D_NET *14 0.000236172
*CONN
*I *443:in I *D sky130_mm_sc_hd_dlyPoly6ns
*I *442:out O *D sky130_mm_sc_hd_dlyPoly6ns
*CAP
1 *443:in 0.000118086
2 *442:out 0.000118086
3 *443:in *83:11 0
4 *443:in *86:6 0
*RES
1 *442:out *443:in 30.2339 
*END

*D_NET *15 0.000685066
*CONN
*I *444:in I *D sky130_mm_sc_hd_dlyPoly6ns
*I *443:out O *D sky130_mm_sc_hd_dlyPoly6ns
*CAP
1 *444:in 0.000342533
2 *443:out 0.000342533
3 *444:in *71:10 0
*RES
1 *443:out *444:in 35.5018 
*END

*D_NET *16 0.000418401
*CONN
*I *445:in I *D sky130_mm_sc_hd_dlyPoly6ns
*I *444:out O *D sky130_mm_sc_hd_dlyPoly6ns
*CAP
1 *445:in 0.000209201
2 *444:out 0.000209201
*RES
1 *444:out *445:in 23.0286 
*END

*D_NET *17 0.000427869
*CONN
*I *446:in I *D sky130_mm_sc_hd_dlyPoly6ns
*I *445:out O *D sky130_mm_sc_hd_dlyPoly6ns
*CAP
1 *446:in 0.000213935
2 *445:out 0.000213935
3 *446:in *448:in 0
*RES
1 *445:out *446:in 32.2964 
*END

*D_NET *18 0.000236172
*CONN
*I *447:in I *D sky130_mm_sc_hd_dlyPoly6ns
*I *446:out O *D sky130_mm_sc_hd_dlyPoly6ns
*CAP
1 *447:in 0.000118086
2 *446:out 0.000118086
*RES
1 *446:out *447:in 30.2339 
*END

*D_NET *19 0.00144414
*CONN
*I *448:in I *D sky130_mm_sc_hd_dlyPoly6ns
*I *447:out O *D sky130_mm_sc_hd_dlyPoly6ns
*CAP
1 *448:in 0.000722071
2 *447:out 0.000722071
3 *448:in *468:in 0
4 *446:in *448:in 0
5 *4:8 *448:in 0
*RES
1 *447:out *448:in 43.8321 
*END

*D_NET *20 0.00129568
*CONN
*I *450:in I *D sky130_mm_sc_hd_dlyPoly6ns
*I *449:out O *D sky130_mm_sc_hd_dlyPoly6ns
*CAP
1 *450:in 0.000647838
2 *449:out 0.000647838
3 *450:in *62:15 0
4 *450:in *92:12 0
*RES
1 *449:out *450:in 41.0958 
*END

*D_NET *21 0.001308
*CONN
*I *451:in I *D sky130_mm_sc_hd_dlyPoly6ns
*I *450:out O *D sky130_mm_sc_hd_dlyPoly6ns
*CAP
1 *451:in 0.000653998
2 *450:out 0.000653998
*RES
1 *450:out *451:in 42.4482 
*END

*D_NET *22 0.00101446
*CONN
*I *452:in I *D sky130_mm_sc_hd_dlyPoly6ns
*I *451:out O *D sky130_mm_sc_hd_dlyPoly6ns
*CAP
1 *452:in 0.000507232
2 *451:out 0.000507232
*RES
1 *451:out *452:in 39.1804 
*END

*D_NET *23 0.000452254
*CONN
*I *453:in I *D sky130_mm_sc_hd_dlyPoly6ns
*I *452:out O *D sky130_mm_sc_hd_dlyPoly6ns
*CAP
1 *453:in 0.000226127
2 *452:out 0.000226127
3 *453:in *92:12 0
*RES
1 *452:out *453:in 32.7339 
*END

*D_NET *24 0.000384612
*CONN
*I *454:in I *D sky130_mm_sc_hd_dlyPoly6ns
*I *453:out O *D sky130_mm_sc_hd_dlyPoly6ns
*CAP
1 *454:in 0.000192306
2 *453:out 0.000192306
3 *454:in *91:16 0
*RES
1 *453:out *454:in 31.9661 
*END

*D_NET *25 0.000184834
*CONN
*I *455:in I *D sky130_mm_sc_hd_dlyPoly6ns
*I *454:out O *D sky130_mm_sc_hd_dlyPoly6ns
*CAP
1 *455:in 9.2417e-05
2 *454:out 9.2417e-05
3 *455:in *94:18 0
*RES
1 *454:out *455:in 29.6982 
*END

*D_NET *26 0.00180984
*CONN
*I *456:in I *D sky130_mm_sc_hd_dlyPoly6ns
*I *455:out O *D sky130_mm_sc_hd_dlyPoly6ns
*CAP
1 *456:in 0
2 *455:out 0.000904919
3 *26:18 0.000904919
4 *26:18 *459:in 0
5 *26:18 *488:in 0
6 *26:18 *62:18 0
7 *26:18 *94:18 0
*RES
1 *455:out *26:18 49.3086 
2 *26:18 *456:in 9.3 
*END

*D_NET *27 0.000452254
*CONN
*I *457:in I *D sky130_mm_sc_hd_dlyPoly6ns
*I *456:out O *D sky130_mm_sc_hd_dlyPoly6ns
*CAP
1 *457:in 0.000226127
2 *456:out 0.000226127
3 *457:in *63:8 0
4 *457:in *73:13 0
*RES
1 *456:out *457:in 32.7339 
*END

*D_NET *28 0.000637874
*CONN
*I *458:in I *D sky130_mm_sc_hd_dlyPoly6ns
*I *474:out O *D sky130_mm_sc_hd_dlyPoly6ns
*CAP
1 *458:in 0.000318937
2 *474:out 0.000318937
3 *458:in *63:8 0
*RES
1 *474:out *458:in 34.8411 
*END

*D_NET *29 0.000817925
*CONN
*I *459:in I *D sky130_mm_sc_hd_dlyPoly6ns
*I *458:out O *D sky130_mm_sc_hd_dlyPoly6ns
*CAP
1 *459:in 0.000408962
2 *458:out 0.000408962
3 *459:in *62:18 0
4 *459:in *94:18 0
5 *26:18 *459:in 0
*RES
1 *458:out *459:in 36.6 
*END

*D_NET *30 0.000184834
*CONN
*I *460:in I *D sky130_mm_sc_hd_dlyPoly6ns
*I *459:out O *D sky130_mm_sc_hd_dlyPoly6ns
*CAP
1 *460:in 9.2417e-05
2 *459:out 9.2417e-05
3 *460:in *91:16 0
*RES
1 *459:out *460:in 29.6982 
*END

*D_NET *31 0.00026506
*CONN
*I *461:in I *D sky130_mm_sc_hd_dlyPoly6ns
*I *460:out O *D sky130_mm_sc_hd_dlyPoly6ns
*CAP
1 *461:in 0.00013253
2 *460:out 0.00013253
3 *461:in *94:18 0
*RES
1 *460:out *461:in 30.6089 
*END

*D_NET *32 0.000184795
*CONN
*I *462:in I *D sky130_mm_sc_hd_dlyPoly6ns
*I *461:out O *D sky130_mm_sc_hd_dlyPoly6ns
*CAP
1 *462:in 9.23974e-05
2 *461:out 9.23974e-05
3 *462:in *92:12 0
*RES
1 *461:out *462:in 29.6982 
*END

*D_NET *33 0.000741486
*CONN
*I *463:in I *D sky130_mm_sc_hd_dlyPoly6ns
*I *462:out O *D sky130_mm_sc_hd_dlyPoly6ns
*CAP
1 *463:in 0.000370743
2 *462:out 0.000370743
3 *440:A1 *463:in 0
*RES
1 *462:out *463:in 35.5821 
*END

*D_NET *34 0.000797172
*CONN
*I *464:in I *D sky130_mm_sc_hd_dlyPoly6ns
*I *463:out O *D sky130_mm_sc_hd_dlyPoly6ns
*CAP
1 *464:in 0.000398586
2 *463:out 0.000398586
3 *464:in *521:in 0
4 *464:in *94:18 0
*RES
1 *463:out *464:in 36.2964 
*END

*D_NET *35 0.00230316
*CONN
*I *465:in I *D sky130_mm_sc_hd_dlyPoly6ns
*I *464:out O *D sky130_mm_sc_hd_dlyPoly6ns
*CAP
1 *465:in 0
2 *464:out 0.00115158
3 *35:29 0.00115158
4 *35:29 *508:in 0
5 *35:29 *511:in 0
6 *35:29 *78:11 0
7 *35:29 *81:12 0
8 *35:29 *95:24 0
*RES
1 *464:out *35:29 43.2821 
2 *35:29 *465:in 9.3 
*END

*D_NET *36 0.000612705
*CONN
*I *467:in I *D sky130_mm_sc_hd_dlyPoly6ns
*I *466:out O *D sky130_mm_sc_hd_dlyPoly6ns
*CAP
1 *467:in 0.000306353
2 *466:out 0.000306353
3 *467:in *469:in 0
4 *438:A *467:in 0
*RES
1 *466:out *467:in 34.5554 
*END

*D_NET *37 0.000518566
*CONN
*I *468:in I *D sky130_mm_sc_hd_dlyPoly6ns
*I *467:out O *D sky130_mm_sc_hd_dlyPoly6ns
*CAP
1 *468:in 0.000259283
2 *467:out 0.000259283
3 *448:in *468:in 0
*RES
1 *467:out *468:in 33.2429 
*END

*D_NET *38 0.00066049
*CONN
*I *469:in I *D sky130_mm_sc_hd_dlyPoly6ns
*I *468:out O *D sky130_mm_sc_hd_dlyPoly6ns
*CAP
1 *469:in 0.000330245
2 *468:out 0.000330245
3 *469:in *84:13 0
4 *467:in *469:in 0
*RES
1 *468:out *469:in 34.9571 
*END

*D_NET *39 0.000757867
*CONN
*I *470:in I *D sky130_mm_sc_hd_dlyPoly6ns
*I *469:out O *D sky130_mm_sc_hd_dlyPoly6ns
*CAP
1 *470:in 0.000378933
2 *469:out 0.000378933
3 *470:in *71:10 0
4 *470:in *86:6 0
*RES
1 *469:out *470:in 44.9661 
*END

*D_NET *40 0.00026506
*CONN
*I *471:in I *D sky130_mm_sc_hd_dlyPoly6ns
*I *470:out O *D sky130_mm_sc_hd_dlyPoly6ns
*CAP
1 *471:in 0.00013253
2 *470:out 0.00013253
3 *471:in *86:6 0
*RES
1 *470:out *471:in 30.6089 
*END

*D_NET *41 0.00064407
*CONN
*I *472:in I *D sky130_mm_sc_hd_dlyPoly6ns
*I *471:out O *D sky130_mm_sc_hd_dlyPoly6ns
*CAP
1 *472:in 0.000322035
2 *471:out 0.000322035
3 *472:in *75:8 0
4 *472:in *77:12 0
5 *472:in *78:11 0
*RES
1 *471:out *472:in 34.725 
*END

*D_NET *42 0.000184834
*CONN
*I *473:in I *D sky130_mm_sc_hd_dlyPoly6ns
*I *472:out O *D sky130_mm_sc_hd_dlyPoly6ns
*CAP
1 *473:in 9.2417e-05
2 *472:out 9.2417e-05
3 *473:in *69:8 0
4 *473:in *83:11 0
*RES
1 *472:out *473:in 29.6982 
*END

*D_NET *43 0.000511147
*CONN
*I *474:in I *D sky130_mm_sc_hd_dlyPoly6ns
*I *473:out O *D sky130_mm_sc_hd_dlyPoly6ns
*CAP
1 *474:in 0.000255573
2 *473:out 0.000255573
3 *474:in *65:14 0
4 *474:in *73:13 0
*RES
1 *473:out *474:in 33.1536 
*END

*D_NET *44 0.00697794
*CONN
*I *440:B1_N I *D sky130_fd_sc_hd__o21ba_2
*I *465:out O *D sky130_mm_sc_hd_dlyPoly6ns
*CAP
1 *440:B1_N 0.000727538
2 *465:out 7.90461e-05
3 *44:9 0.00340993
4 *44:8 0.00276143
5 *440:B1_N *439:A_N 0
6 *440:B1_N *485:in 0
7 *44:8 *71:10 0
8 *44:9 *501:in 0
9 *44:9 *511:in 0
10 *44:9 *93:12 0
11 *44:9 *94:14 0
12 *440:A1 *440:B1_N 0
13 *502:in *440:B1_N 0
*RES
1 *465:out *44:8 20.0946 
2 *44:8 *44:9 55.9821 
3 *44:9 *440:B1_N 34.8179 
*END

*D_NET *45 0.000184834
*CONN
*I *475:in I *D sky130_mm_sc_hd_dlyPoly6ns
*I *491:out O *D sky130_mm_sc_hd_dlyPoly6ns
*CAP
1 *475:in 9.2417e-05
2 *491:out 9.2417e-05
3 *475:in *509:in 0
4 *475:in *74:8 0
*RES
1 *491:out *475:in 29.6982 
*END

*D_NET *46 0.000427948
*CONN
*I *476:in I *D sky130_mm_sc_hd_dlyPoly6ns
*I *475:out O *D sky130_mm_sc_hd_dlyPoly6ns
*CAP
1 *476:in 0.000213974
2 *475:out 0.000213974
3 *476:in *83:11 0
4 *476:in *86:6 0
*RES
1 *475:out *476:in 32.2964 
*END

*D_NET *47 0.000184834
*CONN
*I *477:in I *D sky130_mm_sc_hd_dlyPoly6ns
*I *476:out O *D sky130_mm_sc_hd_dlyPoly6ns
*CAP
1 *477:in 9.2417e-05
2 *476:out 9.2417e-05
3 *477:in *87:14 0
*RES
1 *476:out *477:in 29.6982 
*END

*D_NET *48 0.000749344
*CONN
*I *478:in I *D sky130_mm_sc_hd_dlyPoly6ns
*I *477:out O *D sky130_mm_sc_hd_dlyPoly6ns
*CAP
1 *478:in 0.000374672
2 *477:out 0.000374672
3 *478:in *86:6 0
*RES
1 *477:out *478:in 35.6625 
*END

*D_NET *49 0.00067009
*CONN
*I *479:in I *D sky130_mm_sc_hd_dlyPoly6ns
*I *478:out O *D sky130_mm_sc_hd_dlyPoly6ns
*CAP
1 *479:in 0.000335045
2 *478:out 0.000335045
3 *479:in *481:in 0
4 *479:in *52:16 0
*RES
1 *478:out *479:in 34.8857 
*END

*D_NET *50 0.000503591
*CONN
*I *480:in I *D sky130_mm_sc_hd_dlyPoly6ns
*I *479:out O *D sky130_mm_sc_hd_dlyPoly6ns
*CAP
1 *480:in 0.000251796
2 *479:out 0.000251796
3 *480:in *52:16 0
*RES
1 *479:out *480:in 33.2696 
*END

*D_NET *51 0.000612705
*CONN
*I *481:in I *D sky130_mm_sc_hd_dlyPoly6ns
*I *480:out O *D sky130_mm_sc_hd_dlyPoly6ns
*CAP
1 *481:in 0.000306353
2 *480:out 0.000306353
3 *479:in *481:in 0
*RES
1 *480:out *481:in 34.5554 
*END

*D_NET *52 0.00162393
*CONN
*I *482:in I *D sky130_mm_sc_hd_dlyPoly6ns
*I *481:out O *D sky130_mm_sc_hd_dlyPoly6ns
*CAP
1 *482:in 0
2 *481:out 0.000811965
3 *52:16 0.000811965
4 clk_comp *52:16 0
5 *479:in *52:16 0
6 *480:in *52:16 0
*RES
1 *481:out *52:16 45.3268 
2 *52:16 *482:in 9.3 
*END

*D_NET *53 0.00510082
*CONN
*I *483:in I *D sky130_mm_sc_hd_dlyPoly6ns
*I *440:X O *D sky130_fd_sc_hd__o21ba_2
*CAP
1 *483:in 0
2 *440:X 0.00255041
3 *53:20 0.00255041
4 *53:20 *521:in 0
5 *53:20 *66:26 0
6 *53:20 *83:11 0
7 *53:20 *86:6 0
8 *440:A1 *53:20 0
*RES
1 *440:X *53:20 47.3679 
2 *53:20 *483:in 9.3 
*END

*D_NET *54 0.00489938
*CONN
*I *484:in I *D sky130_mm_sc_hd_dlyPoly6ns
*I *483:out O *D sky130_mm_sc_hd_dlyPoly6ns
*CAP
1 *484:in 0
2 *483:out 0.00244969
3 *54:17 0.00244969
4 *54:17 *513:in 0
5 *54:17 *520:in 0
6 *54:17 *521:in 0
7 *54:17 *66:26 0
8 *54:17 *71:10 0
9 *54:17 *91:16 0
10 *54:17 *95:24 0
*RES
1 *483:out *54:17 41.241 
2 *54:17 *484:in 9.3 
*END

*D_NET *55 0.000853383
*CONN
*I *485:in I *D sky130_mm_sc_hd_dlyPoly6ns
*I *484:out O *D sky130_mm_sc_hd_dlyPoly6ns
*CAP
1 *485:in 0.000426691
2 *484:out 0.000426691
3 *485:in *439:A_N 0
4 *440:B1_N *485:in 0
5 *502:in *485:in 0
*RES
1 *484:out *485:in 37.2875 
*END

*D_NET *56 0.0005884
*CONN
*I *486:in I *D sky130_mm_sc_hd_dlyPoly6ns
*I *485:out O *D sky130_mm_sc_hd_dlyPoly6ns
*CAP
1 *486:in 0.0002942
2 *485:out 0.0002942
3 *486:in *92:12 0
*RES
1 *485:out *486:in 34.1179 
*END

*D_NET *57 0.000232026
*CONN
*I *487:in I *D sky130_mm_sc_hd_dlyPoly6ns
*I *486:out O *D sky130_mm_sc_hd_dlyPoly6ns
*CAP
1 *487:in 0.000116013
2 *486:out 0.000116013
3 *487:in *91:16 0
*RES
1 *486:out *487:in 30.2339 
*END

*D_NET *58 0.000880125
*CONN
*I *488:in I *D sky130_mm_sc_hd_dlyPoly6ns
*I *487:out O *D sky130_mm_sc_hd_dlyPoly6ns
*CAP
1 *488:in 0.000440062
2 *487:out 0.000440062
3 *488:in *62:18 0
4 *488:in *94:18 0
5 *26:18 *488:in 0
*RES
1 *487:out *488:in 37.5911 
*END

*D_NET *59 0.000425512
*CONN
*I *489:in I *D sky130_mm_sc_hd_dlyPoly6ns
*I *488:out O *D sky130_mm_sc_hd_dlyPoly6ns
*CAP
1 *489:in 0.000212756
2 *488:out 0.000212756
3 *489:in *497:in 0
4 *489:in *72:12 0
*RES
1 *488:out *489:in 32.4304 
*END

*D_NET *60 0.00026506
*CONN
*I *490:in I *D sky130_mm_sc_hd_dlyPoly6ns
*I *489:out O *D sky130_mm_sc_hd_dlyPoly6ns
*CAP
1 *490:in 0.00013253
2 *489:out 0.00013253
3 *490:in *63:8 0
*RES
1 *489:out *490:in 30.6089 
*END

*D_NET *61 0.000452254
*CONN
*I *491:in I *D sky130_mm_sc_hd_dlyPoly6ns
*I *490:out O *D sky130_mm_sc_hd_dlyPoly6ns
*CAP
1 *491:in 0.000226127
2 *490:out 0.000226127
3 *491:in *75:8 0
4 *491:in *77:12 0
5 *491:in *79:19 0
*RES
1 *490:out *491:in 32.7339 
*END

*D_NET *62 0.00445574
*CONN
*I *492:in I *D sky130_mm_sc_hd_dlyPoly6ns
*I *525:out O *D sky130_mm_sc_hd_dlyPoly6ns
*CAP
1 *492:in 0
2 *525:out 0.000617869
3 *62:18 0.00161
4 *62:15 0.00222787
5 *62:18 *521:in 0
6 *62:18 *72:12 0
7 *450:in *62:15 0
8 *459:in *62:18 0
9 *488:in *62:18 0
10 *26:18 *62:18 0
*RES
1 *525:out *62:15 38.2193 
2 *62:15 *62:18 41.0536 
3 *62:18 *492:in 9.3 
*END

*D_NET *63 0.00256487
*CONN
*I *493:in I *D sky130_mm_sc_hd_dlyPoly6ns
*I *492:out O *D sky130_mm_sc_hd_dlyPoly6ns
*CAP
1 *493:in 0
2 *492:out 0.00128243
3 *63:8 0.00128243
4 *63:8 *73:13 0
5 *63:8 *93:12 0
6 *457:in *63:8 0
7 *458:in *63:8 0
8 *490:in *63:8 0
*RES
1 *492:out *63:8 47.4161 
2 *63:8 *493:in 9.3 
*END

*D_NET *64 0.000184834
*CONN
*I *494:in I *D sky130_mm_sc_hd_dlyPoly6ns
*I *493:out O *D sky130_mm_sc_hd_dlyPoly6ns
*CAP
1 *494:in 9.2417e-05
2 *493:out 9.2417e-05
3 *494:in *497:in 0
4 *494:in *72:12 0
*RES
1 *493:out *494:in 29.6982 
*END

*D_NET *65 0.00276858
*CONN
*I *495:in I *D sky130_mm_sc_hd_dlyPoly6ns
*I *494:out O *D sky130_mm_sc_hd_dlyPoly6ns
*CAP
1 *495:in 0
2 *494:out 0.00138429
3 *65:14 0.00138429
4 *65:14 *498:in 0
5 *65:14 *73:13 0
6 *474:in *65:14 0
*RES
1 *494:out *65:14 49.3714 
2 *65:14 *495:in 9.3 
*END

*D_NET *66 0.00218169
*CONN
*I *496:in I *D sky130_mm_sc_hd_dlyPoly6ns
*I *495:out O *D sky130_mm_sc_hd_dlyPoly6ns
*CAP
1 *496:in 0.000104386
2 *495:out 0.000986457
3 *66:26 0.00109084
4 *66:26 *73:13 0
5 *66:26 *77:12 0
6 *66:26 *78:11 0
7 *66:26 *81:12 0
8 *53:20 *66:26 0