* NGSPICE file created from adc_vcm_gen_flattened.ext - technology: sky130A

.subckt adc_vcm_gen_flattened clk vcm VDD VSS
X0 VSS vcm VSS VSS sky130_fd_pr__nfet_01v8 ad=2.11922e+15p pd=6.36422e+09u as=0p ps=0u w=1.64e+07u l=1.6e+07u
X1 VDD a_2826_38568# sky130_fd_sc_hd__buf_4_1/X VDD sky130_fd_pr__pfet_01v8_hvt ad=1.0897e+13p pd=1.0336e+08u as=5.4e+11p ps=5.08e+06u w=1e+06u l=150000u
X2 VSS a_3058_37506# a_3164_37506# VSS sky130_fd_pr__nfet_01v8 ad=0p pd=0u as=1.092e+11p ps=1.36e+06u w=420000u l=150000u
X3 adc_noise_decoup_cell1_1[5|1]/mimcap_top VSS sky130_fd_pr__cap_mim_m3_1 l=1.72e+07u w=1.72e+07u
X4 adc_noise_decoup_cell1_1[5|1]/mimcap_top sky130_fd_sc_hd__buf_4_0/X vcm VSS sky130_fd_pr__nfet_01v8 ad=2.9e+11p pd=3.16e+06u as=5.8e+11p ps=6.32e+06u w=500000u l=500000u
X5 VSS vcm VSS VSS sky130_fd_pr__nfet_01v8 ad=0p pd=0u as=0p ps=0u w=1.64e+07u l=1.6e+07u
X6 a_3695_37506# a_3518_37506# VDD VDD sky130_fd_pr__pfet_01v8_hvt ad=2.6e+11p pd=2.52e+06u as=0p ps=0u w=1e+06u l=150000u
X7 VSS vcm VSS VSS sky130_fd_pr__nfet_01v8 ad=0p pd=0u as=0p ps=0u w=1.64e+07u l=1.6e+07u
X8 VSS vcm VSS VSS sky130_fd_pr__nfet_01v8 ad=0p pd=0u as=0p ps=0u w=1.64e+07u l=1.6e+07u
X9 adc_noise_decoup_cell1_1[5|1]/mimcap_top VSS sky130_fd_pr__cap_mim_m3_1 l=1.72e+07u w=1.72e+07u
X10 VSS vcm VSS VSS sky130_fd_pr__nfet_01v8 ad=0p pd=0u as=0p ps=0u w=1.64e+07u l=1.6e+07u
X11 adc_noise_decoup_cell1_2[1|16]/mimcap_top adc_noise_decoup_cell1_2[1|16]/mimcap_bot sky130_fd_pr__cap_mim_m3_1 l=1.72e+07u w=1.72e+07u
X12 sky130_fd_sc_hd__buf_4_0/X a_3378_38568# VSS VSS sky130_fd_pr__nfet_01v8 ad=3.51e+11p pd=3.68e+06u as=0p ps=0u w=650000u l=150000u
X13 a_2775_37506# a_2598_37506# VSS VSS sky130_fd_pr__nfet_01v8 ad=1.69e+11p pd=1.82e+06u as=0p ps=0u w=650000u l=150000u
X14 sky130_fd_sc_hd__buf_4_2/X a_3378_36936# VSS VSS sky130_fd_pr__nfet_01v8 ad=3.51e+11p pd=3.68e+06u as=0p ps=0u w=650000u l=150000u
X15 adc_noise_decoup_cell1_1[5|1]/mimcap_top VSS sky130_fd_pr__cap_mim_m3_1 l=1.72e+07u w=1.72e+07u
X16 adc_noise_decoup_cell1_2[1|16]/mimcap_top adc_noise_decoup_cell1_2[1|16]/mimcap_bot sky130_fd_pr__cap_mim_m3_1 l=1.72e+07u w=1.72e+07u
X17 sky130_fd_sc_hd__buf_4_1/X a_2826_38568# VDD VDD sky130_fd_pr__pfet_01v8_hvt ad=0p pd=0u as=0p ps=0u w=1e+06u l=150000u
X18 VDD sky130_fd_sc_hd__nand2_1_0/B sky130_fd_sc_hd__dlymetal6s6s_1_0/A VDD sky130_fd_pr__pfet_01v8_hvt ad=0p pd=0u as=2.7e+11p ps=2.54e+06u w=1e+06u l=150000u
X19 a_2138_37506# a_1961_37506# VDD VDD sky130_fd_pr__pfet_01v8_hvt ad=2.6e+11p pd=2.52e+06u as=0p ps=0u w=1e+06u l=150000u
X20 VDD a_2775_38050# a_2881_38050# VDD sky130_fd_pr__pfet_01v8_hvt ad=0p pd=0u as=1.092e+11p ps=1.36e+06u w=420000u l=150000u
X21 VSS vcm VSS VSS sky130_fd_pr__nfet_01v8 ad=0p pd=0u as=0p ps=0u w=1.64e+07u l=1.6e+07u
X22 VSS vcm VSS VSS sky130_fd_pr__nfet_01v8 ad=0p pd=0u as=0p ps=0u w=1.64e+07u l=1.6e+07u
X23 adc_noise_decoup_cell1_1[5|1]/mimcap_top VSS sky130_fd_pr__cap_mim_m3_1 l=1.72e+07u w=1.72e+07u
X24 adc_noise_decoup_cell1_1[5|1]/mimcap_top VSS sky130_fd_pr__cap_mim_m3_1 l=1.72e+07u w=1.72e+07u
X25 VSS sky130_fd_sc_hd__dlymetal6s6s_1_5/A a_3518_37506# VSS sky130_fd_pr__nfet_01v8 ad=0p pd=0u as=1.092e+11p ps=1.36e+06u w=420000u l=150000u
X26 adc_noise_decoup_cell1_2[1|16]/mimcap_top adc_noise_decoup_cell1_2[1|16]/mimcap_bot sky130_fd_pr__cap_mim_m3_1 l=1.72e+07u w=1.72e+07u
X27 sky130_fd_sc_hd__buf_4_3/X a_2826_36936# VSS VSS sky130_fd_pr__nfet_01v8 ad=3.51e+11p pd=3.68e+06u as=0p ps=0u w=650000u l=150000u
X28 VSS sky130_fd_sc_hd__dlymetal6s6s_1_5/X sky130_fd_sc_hd__inv_1_1/Y VSS sky130_fd_pr__nfet_01v8 ad=0p pd=0u as=1.69e+11p ps=1.82e+06u w=650000u l=150000u
X29 VSS vcm VSS VSS sky130_fd_pr__nfet_01v8 ad=0p pd=0u as=0p ps=0u w=1.64e+07u l=1.6e+07u
X30 VSS a_2138_37506# a_2244_37506# VSS sky130_fd_pr__nfet_01v8 ad=0p pd=0u as=1.092e+11p ps=1.36e+06u w=420000u l=150000u
X31 VSS vcm VSS VSS sky130_fd_pr__nfet_01v8 ad=0p pd=0u as=0p ps=0u w=1.64e+07u l=1.6e+07u
X32 a_3695_38050# a_3518_38050# VSS VSS sky130_fd_pr__nfet_01v8 ad=1.69e+11p pd=1.82e+06u as=0p ps=0u w=650000u l=150000u
X33 VDD a_2775_37506# a_2881_37506# VDD sky130_fd_pr__pfet_01v8_hvt ad=0p pd=0u as=1.092e+11p ps=1.36e+06u w=420000u l=150000u
X34 VSS vcm VSS VSS sky130_fd_pr__nfet_01v8 ad=0p pd=0u as=0p ps=0u w=1.64e+07u l=1.6e+07u
X35 VSS vcm VSS VSS sky130_fd_pr__nfet_01v8 ad=0p pd=0u as=0p ps=0u w=1.64e+07u l=1.6e+07u
X36 adc_noise_decoup_cell1_2[1|16]/mimcap_top adc_noise_decoup_cell1_2[1|16]/mimcap_bot sky130_fd_pr__cap_mim_m3_1 l=1.72e+07u w=1.72e+07u
X37 sky130_fd_sc_hd__dlymetal6s6s_1_0/A clk VDD VDD sky130_fd_pr__pfet_01v8_hvt ad=0p pd=0u as=0p ps=0u w=1e+06u l=150000u
X38 VSS a_1855_37506# a_1961_37506# VSS sky130_fd_pr__nfet_01v8 ad=0p pd=0u as=1.092e+11p ps=1.36e+06u w=420000u l=150000u
X39 VSS vcm VSS VSS sky130_fd_pr__nfet_01v8 ad=0p pd=0u as=0p ps=0u w=1.64e+07u l=1.6e+07u
X40 adc_noise_decoup_cell1_2[1|16]/mimcap_top adc_noise_decoup_cell1_2[1|16]/mimcap_bot sky130_fd_pr__cap_mim_m3_1 l=1.72e+07u w=1.72e+07u
X41 adc_noise_decoup_cell1_2[1|16]/mimcap_top adc_noise_decoup_cell1_2[1|16]/mimcap_bot sky130_fd_pr__cap_mim_m3_1 l=1.72e+07u w=1.72e+07u
X42 sky130_fd_sc_hd__dlymetal6s6s_1_1/A sky130_fd_sc_hd__inv_1_4/Y VDD VDD sky130_fd_pr__pfet_01v8_hvt ad=2.7e+11p pd=2.54e+06u as=0p ps=0u w=1e+06u l=150000u
X43 a_2826_36936# sky130_fd_sc_hd__nand2_1_0/B VSS VSS sky130_fd_pr__nfet_01v8 ad=1.69e+11p pd=1.82e+06u as=0p ps=0u w=650000u l=150000u
X44 adc_noise_decoup_cell1_1[5|1]/mimcap_top VSS sky130_fd_pr__cap_mim_m3_1 l=1.72e+07u w=1.72e+07u
X45 VSS vcm VSS VSS sky130_fd_pr__nfet_01v8 ad=0p pd=0u as=0p ps=0u w=1.64e+07u l=1.6e+07u
X46 VSS a_3378_38568# sky130_fd_sc_hd__buf_4_0/X VSS sky130_fd_pr__nfet_01v8 ad=0p pd=0u as=0p ps=0u w=650000u l=150000u
X47 adc_noise_decoup_cell1_1[5|1]/mimcap_top VSS sky130_fd_pr__cap_mim_m3_1 l=1.72e+07u w=1.72e+07u
X48 adc_noise_decoup_cell1_2[1|16]/mimcap_top adc_noise_decoup_cell1_2[1|16]/mimcap_bot sky130_fd_pr__cap_mim_m3_1 l=1.72e+07u w=1.72e+07u
X49 a_2138_38050# a_1961_38050# VSS VSS sky130_fd_pr__nfet_01v8 ad=1.69e+11p pd=1.82e+06u as=0p ps=0u w=650000u l=150000u
X50 VSS vcm VSS VSS sky130_fd_pr__nfet_01v8 ad=0p pd=0u as=0p ps=0u w=1.64e+07u l=1.6e+07u
X51 adc_noise_decoup_cell1_2[1|16]/mimcap_top adc_noise_decoup_cell1_2[1|16]/mimcap_bot sky130_fd_pr__cap_mim_m3_1 l=1.72e+07u w=1.72e+07u
X52 adc_noise_decoup_cell1_1[5|1]/mimcap_top VSS sky130_fd_pr__cap_mim_m3_1 l=1.72e+07u w=1.72e+07u
X53 adc_noise_decoup_cell1_2[1|16]/mimcap_top adc_noise_decoup_cell1_2[1|16]/mimcap_bot sky130_fd_pr__cap_mim_m3_1 l=1.72e+07u w=1.72e+07u
X54 VSS vcm VSS VSS sky130_fd_pr__nfet_01v8 ad=0p pd=0u as=0p ps=0u w=1.64e+07u l=1.6e+07u
X55 adc_noise_decoup_cell1_1[5|1]/mimcap_top VSS sky130_fd_pr__cap_mim_m3_1 l=1.72e+07u w=1.72e+07u
X56 VDD sky130_fd_sc_hd__dlymetal6s6s_1_0/A a_1678_38050# VDD sky130_fd_pr__pfet_01v8_hvt ad=0p pd=0u as=1.092e+11p ps=1.36e+06u w=420000u l=150000u
X57 VSS a_2826_36936# sky130_fd_sc_hd__buf_4_3/X VSS sky130_fd_pr__nfet_01v8 ad=0p pd=0u as=0p ps=0u w=650000u l=150000u
X58 VSS vcm VSS VSS sky130_fd_pr__nfet_01v8 ad=0p pd=0u as=0p ps=0u w=1.64e+07u l=1.6e+07u
X59 adc_noise_decoup_cell1_1[5|1]/mimcap_top VSS sky130_fd_pr__cap_mim_m3_1 l=1.72e+07u w=1.72e+07u
X60 VSS vcm VSS VSS sky130_fd_pr__nfet_01v8 ad=0p pd=0u as=0p ps=0u w=1.64e+07u l=1.6e+07u
X61 VSS a_2775_38050# a_2881_38050# VSS sky130_fd_pr__nfet_01v8 ad=0p pd=0u as=1.092e+11p ps=1.36e+06u w=420000u l=150000u
X62 sky130_fd_sc_hd__buf_4_0/X a_3378_38568# VSS VSS sky130_fd_pr__nfet_01v8 ad=0p pd=0u as=0p ps=0u w=650000u l=150000u
X63 VSS vcm VSS VSS sky130_fd_pr__nfet_01v8 ad=0p pd=0u as=0p ps=0u w=1.64e+07u l=1.6e+07u
X64 a_3058_38050# a_2881_38050# VDD VDD sky130_fd_pr__pfet_01v8_hvt ad=2.6e+11p pd=2.52e+06u as=0p ps=0u w=1e+06u l=150000u
X65 a_3378_36936# sky130_fd_sc_hd__inv_1_1/Y VSS VSS sky130_fd_pr__nfet_01v8 ad=1.69e+11p pd=1.82e+06u as=0p ps=0u w=650000u l=150000u
X66 VDD sky130_fd_sc_hd__dlymetal6s6s_1_1/A a_1678_37506# VDD sky130_fd_pr__pfet_01v8_hvt ad=0p pd=0u as=1.092e+11p ps=1.36e+06u w=420000u l=150000u
X67 adc_noise_decoup_cell1_1[5|1]/mimcap_top VSS sky130_fd_pr__cap_mim_m3_1 l=1.72e+07u w=1.72e+07u
X68 VSS sky130_fd_sc_hd__dlymetal6s6s_1_3/X sky130_fd_sc_hd__inv_1_0/Y VSS sky130_fd_pr__nfet_01v8 ad=0p pd=0u as=1.69e+11p ps=1.82e+06u w=650000u l=150000u
X69 adc_noise_decoup_cell1_1[5|1]/mimcap_top sky130_fd_sc_hd__buf_4_1/X vcm VDD sky130_fd_pr__pfet_01v8 ad=5.8e+11p pd=5.16e+06u as=1.16e+12p ps=1.032e+07u w=1e+06u l=1e+06u
X70 VSS a_2826_36936# sky130_fd_sc_hd__buf_4_3/X VSS sky130_fd_pr__nfet_01v8 ad=0p pd=0u as=0p ps=0u w=650000u l=150000u
X71 VSS vcm VSS VSS sky130_fd_pr__nfet_01v8 ad=0p pd=0u as=0p ps=0u w=1.64e+07u l=1.6e+07u
X72 adc_noise_decoup_cell1_1[5|1]/mimcap_top VSS sky130_fd_pr__cap_mim_m3_1 l=1.72e+07u w=1.72e+07u
X73 sky130_fd_sc_hd__buf_4_1/X a_2826_38568# VSS VSS sky130_fd_pr__nfet_01v8 ad=3.51e+11p pd=3.68e+06u as=0p ps=0u w=650000u l=150000u
X74 adc_noise_decoup_cell1_2[1|16]/mimcap_top adc_noise_decoup_cell1_2[1|16]/mimcap_bot sky130_fd_pr__cap_mim_m3_1 l=1.72e+07u w=1.72e+07u
X75 sky130_fd_sc_hd__inv_1_4/Y clk VSS VSS sky130_fd_pr__nfet_01v8 ad=1.69e+11p pd=1.82e+06u as=0p ps=0u w=650000u l=150000u
X76 VSS vcm VSS VSS sky130_fd_pr__nfet_01v8 ad=0p pd=0u as=0p ps=0u w=1.64e+07u l=1.6e+07u
X77 a_3058_37506# a_2881_37506# VSS VSS sky130_fd_pr__nfet_01v8 ad=1.69e+11p pd=1.82e+06u as=0p ps=0u w=650000u l=150000u
X78 VSS vcm VSS VSS sky130_fd_pr__nfet_01v8 ad=0p pd=0u as=0p ps=0u w=1.64e+07u l=1.6e+07u
X79 sky130_fd_sc_hd__dlymetal6s6s_1_3/A a_3164_38050# VDD VDD sky130_fd_pr__pfet_01v8_hvt ad=2.6e+11p pd=2.52e+06u as=0p ps=0u w=1e+06u l=150000u
X80 VSS vcm VSS VSS sky130_fd_pr__nfet_01v8 ad=0p pd=0u as=0p ps=0u w=1.64e+07u l=1.6e+07u
X81 adc_noise_decoup_cell1_1[5|1]/mimcap_top VSS sky130_fd_pr__cap_mim_m3_1 l=1.72e+07u w=1.72e+07u
X82 VSS vcm VSS VSS sky130_fd_pr__nfet_01v8 ad=0p pd=0u as=0p ps=0u w=1.64e+07u l=1.6e+07u
X83 a_2826_38568# sky130_fd_sc_hd__inv_1_2/Y VSS VSS sky130_fd_pr__nfet_01v8 ad=1.69e+11p pd=1.82e+06u as=0p ps=0u w=650000u l=150000u
X84 VDD a_3058_38050# a_3164_38050# VDD sky130_fd_pr__pfet_01v8_hvt ad=0p pd=0u as=1.092e+11p ps=1.36e+06u w=420000u l=150000u
X85 VSS vcm VSS VSS sky130_fd_pr__nfet_01v8 ad=0p pd=0u as=0p ps=0u w=1.64e+07u l=1.6e+07u
X86 VSS sky130_fd_sc_hd__dlymetal6s6s_1_0/A a_1678_38050# VSS sky130_fd_pr__nfet_01v8 ad=0p pd=0u as=1.092e+11p ps=1.36e+06u w=420000u l=150000u
X87 sky130_fd_sc_hd__buf_4_3/X a_2826_36936# VSS VSS sky130_fd_pr__nfet_01v8 ad=0p pd=0u as=0p ps=0u w=650000u l=150000u
X88 VSS vcm VSS VSS sky130_fd_pr__nfet_01v8 ad=0p pd=0u as=0p ps=0u w=1.64e+07u l=1.6e+07u
X89 VSS vcm VSS VSS sky130_fd_pr__nfet_01v8 ad=0p pd=0u as=0p ps=0u w=1.64e+07u l=1.6e+07u
X90 sky130_fd_sc_hd__dlymetal6s6s_1_5/X a_4084_37506# VDD VDD sky130_fd_pr__pfet_01v8_hvt ad=2.6e+11p pd=2.52e+06u as=0p ps=0u w=1e+06u l=150000u
X91 VDD a_3058_37506# a_3164_37506# VDD sky130_fd_pr__pfet_01v8_hvt ad=0p pd=0u as=1.092e+11p ps=1.36e+06u w=420000u l=150000u
X92 VDD sky130_fd_sc_hd__inv_1_1/Y sky130_fd_sc_hd__nand2_1_0/B VDD sky130_fd_pr__pfet_01v8_hvt ad=0p pd=0u as=2.6e+11p ps=2.52e+06u w=1e+06u l=150000u
X93 adc_noise_decoup_cell1_2[1|16]/mimcap_top adc_noise_decoup_cell1_2[1|16]/mimcap_bot sky130_fd_pr__cap_mim_m3_1 l=1.72e+07u w=1.72e+07u
X94 VSS vcm VSS VSS sky130_fd_pr__nfet_01v8 ad=0p pd=0u as=0p ps=0u w=1.64e+07u l=1.6e+07u
X95 sky130_fd_sc_hd__dlymetal6s6s_1_5/A a_3164_37506# VSS VSS sky130_fd_pr__nfet_01v8 ad=1.69e+11p pd=1.82e+06u as=0p ps=0u w=650000u l=150000u
X96 VSS vcm VSS VSS sky130_fd_pr__nfet_01v8 ad=0p pd=0u as=0p ps=0u w=1.64e+07u l=1.6e+07u
X97 VSS a_2826_38568# sky130_fd_sc_hd__buf_4_1/X VSS sky130_fd_pr__nfet_01v8 ad=0p pd=0u as=0p ps=0u w=650000u l=150000u
X98 VDD sky130_fd_sc_hd__inv_1_2/Y sky130_fd_sc_hd__dlymetal6s6s_1_1/A VDD sky130_fd_pr__pfet_01v8_hvt ad=0p pd=0u as=0p ps=0u w=1e+06u l=150000u
X99 adc_noise_decoup_cell1_1[5|1]/mimcap_top VSS sky130_fd_pr__cap_mim_m3_1 l=1.72e+07u w=1.72e+07u
X100 adc_noise_decoup_cell1_2[1|16]/mimcap_top adc_noise_decoup_cell1_2[1|16]/mimcap_bot sky130_fd_pr__cap_mim_m3_1 l=1.72e+07u w=1.72e+07u
X101 VSS vcm VSS VSS sky130_fd_pr__nfet_01v8 ad=0p pd=0u as=0p ps=0u w=1.64e+07u l=1.6e+07u
X102 adc_noise_decoup_cell1_1[5|1]/mimcap_top VSS sky130_fd_pr__cap_mim_m3_1 l=1.72e+07u w=1.72e+07u
X103 adc_noise_decoup_cell1_2[1|16]/mimcap_top adc_noise_decoup_cell1_2[1|16]/mimcap_bot sky130_fd_pr__cap_mim_m3_1 l=1.72e+07u w=1.72e+07u
X104 a_3378_38568# sky130_fd_sc_hd__inv_1_0/Y VSS VSS sky130_fd_pr__nfet_01v8 ad=1.69e+11p pd=1.82e+06u as=0p ps=0u w=650000u l=150000u
X105 sky130_fd_sc_hd__dlymetal6s6s_1_2/A a_2244_38050# VDD VDD sky130_fd_pr__pfet_01v8_hvt ad=2.6e+11p pd=2.52e+06u as=0p ps=0u w=1e+06u l=150000u
X106 VDD sky130_fd_sc_hd__dlymetal6s6s_1_3/A a_3518_38050# VDD sky130_fd_pr__pfet_01v8_hvt ad=0p pd=0u as=1.092e+11p ps=1.36e+06u w=420000u l=150000u
X107 adc_noise_decoup_cell1_2[1|16]/mimcap_top sky130_fd_sc_hd__buf_4_3/X VDD VDD sky130_fd_pr__pfet_01v8 ad=8.7e+11p pd=7.74e+06u as=0p ps=0u w=1e+06u l=1e+06u
X108 adc_noise_decoup_cell1_1[5|1]/mimcap_top VSS sky130_fd_pr__cap_mim_m3_1 l=1.72e+07u w=1.72e+07u
X109 adc_noise_decoup_cell1_2[1|16]/mimcap_top adc_noise_decoup_cell1_2[1|16]/mimcap_bot sky130_fd_pr__cap_mim_m3_1 l=1.72e+07u w=1.72e+07u
X110 a_3978_37506# a_3801_37506# VDD VDD sky130_fd_pr__pfet_01v8_hvt ad=2.6e+11p pd=2.52e+06u as=0p ps=0u w=1e+06u l=150000u
X111 adc_noise_decoup_cell1_2[1|16]/mimcap_top adc_noise_decoup_cell1_2[1|16]/mimcap_bot sky130_fd_pr__cap_mim_m3_1 l=1.72e+07u w=1.72e+07u
X112 VDD a_2138_38050# a_2244_38050# VDD sky130_fd_pr__pfet_01v8_hvt ad=0p pd=0u as=1.092e+11p ps=1.36e+06u w=420000u l=150000u
X113 adc_noise_decoup_cell1_2[1|16]/mimcap_bot sky130_fd_sc_hd__buf_4_3/X adc_noise_decoup_cell1_1[5|1]/mimcap_top VDD sky130_fd_pr__pfet_01v8 ad=1.16e+12p pd=1.032e+07u as=0p ps=0u w=1e+06u l=1e+06u
X114 VSS vcm VSS VSS sky130_fd_pr__nfet_01v8 ad=0p pd=0u as=0p ps=0u w=1.64e+07u l=1.6e+07u
X115 sky130_fd_sc_hd__dlymetal6s6s_1_3/X a_4084_38050# VSS VSS sky130_fd_pr__nfet_01v8 ad=1.69e+11p pd=1.82e+06u as=0p ps=0u w=650000u l=150000u
X116 VDD a_3378_36936# sky130_fd_sc_hd__buf_4_2/X VDD sky130_fd_pr__pfet_01v8_hvt ad=0p pd=0u as=5.4e+11p ps=5.08e+06u w=1e+06u l=150000u
X117 VSS a_2826_38568# sky130_fd_sc_hd__buf_4_1/X VSS sky130_fd_pr__nfet_01v8 ad=0p pd=0u as=0p ps=0u w=650000u l=150000u
X118 VDD a_1855_38050# a_1961_38050# VDD sky130_fd_pr__pfet_01v8_hvt ad=0p pd=0u as=1.092e+11p ps=1.36e+06u w=420000u l=150000u
X119 VDD sky130_fd_sc_hd__dlymetal6s6s_1_5/A a_3518_37506# VDD sky130_fd_pr__pfet_01v8_hvt ad=0p pd=0u as=1.092e+11p ps=1.36e+06u w=420000u l=150000u
X120 VDD sky130_fd_sc_hd__buf_4_3/X adc_noise_decoup_cell1_2[1|16]/mimcap_top VDD sky130_fd_pr__pfet_01v8 ad=0p pd=0u as=0p ps=0u w=1e+06u l=1e+06u
X121 adc_noise_decoup_cell1_1[5|1]/mimcap_top VSS sky130_fd_pr__cap_mim_m3_1 l=1.72e+07u w=1.72e+07u
X122 VSS a_3058_38050# a_3164_38050# VSS sky130_fd_pr__nfet_01v8 ad=0p pd=0u as=1.092e+11p ps=1.36e+06u w=420000u l=150000u
X123 VDD a_2138_37506# a_2244_37506# VDD sky130_fd_pr__pfet_01v8_hvt ad=0p pd=0u as=1.092e+11p ps=1.36e+06u w=420000u l=150000u
X124 adc_noise_decoup_cell1_2[1|16]/mimcap_top adc_noise_decoup_cell1_2[1|16]/mimcap_bot sky130_fd_pr__cap_mim_m3_1 l=1.72e+07u w=1.72e+07u
X125 sky130_fd_sc_hd__dlymetal6s6s_1_4/A a_2244_37506# VSS VSS sky130_fd_pr__nfet_01v8 ad=1.69e+11p pd=1.82e+06u as=0p ps=0u w=650000u l=150000u
X126 adc_noise_decoup_cell1_1[5|1]/mimcap_top sky130_fd_sc_hd__buf_4_3/X adc_noise_decoup_cell1_2[1|16]/mimcap_bot VDD sky130_fd_pr__pfet_01v8 ad=0p pd=0u as=0p ps=0u w=1e+06u l=1e+06u
X127 adc_noise_decoup_cell1_2[1|16]/mimcap_top adc_noise_decoup_cell1_2[1|16]/mimcap_bot sky130_fd_pr__cap_mim_m3_1 l=1.72e+07u w=1.72e+07u
X128 VSS a_3695_37506# a_3801_37506# VSS sky130_fd_pr__nfet_01v8 ad=0p pd=0u as=1.092e+11p ps=1.36e+06u w=420000u l=150000u
X129 VSS vcm VSS VSS sky130_fd_pr__nfet_01v8 ad=0p pd=0u as=0p ps=0u w=1.64e+07u l=1.6e+07u
X130 a_1855_38050# a_1678_38050# VDD VDD sky130_fd_pr__pfet_01v8_hvt ad=2.6e+11p pd=2.52e+06u as=0p ps=0u w=1e+06u l=150000u
X131 VDD a_1855_37506# a_1961_37506# VDD sky130_fd_pr__pfet_01v8_hvt ad=0p pd=0u as=1.092e+11p ps=1.36e+06u w=420000u l=150000u
X132 adc_noise_decoup_cell1_1[5|1]/mimcap_top VSS sky130_fd_pr__cap_mim_m3_1 l=1.72e+07u w=1.72e+07u
X133 adc_noise_decoup_cell1_2[1|16]/mimcap_top adc_noise_decoup_cell1_2[1|16]/mimcap_bot sky130_fd_pr__cap_mim_m3_1 l=1.72e+07u w=1.72e+07u
X134 adc_noise_decoup_cell1_1[5|1]/mimcap_top VSS sky130_fd_pr__cap_mim_m3_1 l=1.72e+07u w=1.72e+07u
X135 VSS vcm VSS VSS sky130_fd_pr__nfet_01v8 ad=0p pd=0u as=0p ps=0u w=1.64e+07u l=1.6e+07u
X136 sky130_fd_sc_hd__buf_4_1/X a_2826_38568# VSS VSS sky130_fd_pr__nfet_01v8 ad=0p pd=0u as=0p ps=0u w=650000u l=150000u
X137 a_3978_38050# a_3801_38050# VSS VSS sky130_fd_pr__nfet_01v8 ad=1.69e+11p pd=1.82e+06u as=0p ps=0u w=650000u l=150000u
X138 sky130_fd_sc_hd__buf_4_2/X a_3378_36936# VDD VDD sky130_fd_pr__pfet_01v8_hvt ad=0p pd=0u as=0p ps=0u w=1e+06u l=150000u
X139 VSS vcm VSS VSS sky130_fd_pr__nfet_01v8 ad=0p pd=0u as=0p ps=0u w=1.64e+07u l=1.6e+07u
X140 adc_noise_decoup_cell1_1[5|1]/mimcap_top VSS sky130_fd_pr__cap_mim_m3_1 l=1.72e+07u w=1.72e+07u
X141 adc_noise_decoup_cell1_2[1|16]/mimcap_top adc_noise_decoup_cell1_2[1|16]/mimcap_bot sky130_fd_pr__cap_mim_m3_1 l=1.72e+07u w=1.72e+07u
X142 adc_noise_decoup_cell1_2[1|16]/mimcap_top adc_noise_decoup_cell1_2[1|16]/mimcap_bot sky130_fd_pr__cap_mim_m3_1 l=1.72e+07u w=1.72e+07u
X143 VSS sky130_fd_sc_hd__dlymetal6s6s_1_3/A a_3518_38050# VSS sky130_fd_pr__nfet_01v8 ad=0p pd=0u as=1.092e+11p ps=1.36e+06u w=420000u l=150000u
X144 a_2775_37506# a_2598_37506# VDD VDD sky130_fd_pr__pfet_01v8_hvt ad=2.6e+11p pd=2.52e+06u as=0p ps=0u w=1e+06u l=150000u
X145 adc_noise_decoup_cell1_1[5|1]/mimcap_top VSS sky130_fd_pr__cap_mim_m3_1 l=1.72e+07u w=1.72e+07u
X146 adc_noise_decoup_cell1_2[1|16]/mimcap_top adc_noise_decoup_cell1_2[1|16]/mimcap_bot sky130_fd_pr__cap_mim_m3_1 l=1.72e+07u w=1.72e+07u
X147 adc_noise_decoup_cell1_1[5|1]/mimcap_top VSS sky130_fd_pr__cap_mim_m3_1 l=1.72e+07u w=1.72e+07u
X148 VSS a_2138_38050# a_2244_38050# VSS sky130_fd_pr__nfet_01v8 ad=0p pd=0u as=1.092e+11p ps=1.36e+06u w=420000u l=150000u
X149 a_1855_37506# a_1678_37506# VSS VSS sky130_fd_pr__nfet_01v8 ad=1.69e+11p pd=1.82e+06u as=0p ps=0u w=650000u l=150000u
X150 VSS vcm VSS VSS sky130_fd_pr__nfet_01v8 ad=0p pd=0u as=0p ps=0u w=1.64e+07u l=1.6e+07u
X151 VSS vcm VSS VSS sky130_fd_pr__nfet_01v8 ad=0p pd=0u as=0p ps=0u w=1.64e+07u l=1.6e+07u
X152 adc_noise_decoup_cell1_1[5|1]/mimcap_top VSS sky130_fd_pr__cap_mim_m3_1 l=1.72e+07u w=1.72e+07u
X153 VSS a_1855_38050# a_1961_38050# VSS sky130_fd_pr__nfet_01v8 ad=0p pd=0u as=1.092e+11p ps=1.36e+06u w=420000u l=150000u
X154 VSS vcm VSS VSS sky130_fd_pr__nfet_01v8 ad=0p pd=0u as=0p ps=0u w=1.64e+07u l=1.6e+07u
X155 VSS vcm VSS VSS sky130_fd_pr__nfet_01v8 ad=0p pd=0u as=0p ps=0u w=1.64e+07u l=1.6e+07u
X156 adc_noise_decoup_cell1_1[5|1]/mimcap_top VSS sky130_fd_pr__cap_mim_m3_1 l=1.72e+07u w=1.72e+07u
X157 VSS vcm VSS VSS sky130_fd_pr__nfet_01v8 ad=0p pd=0u as=0p ps=0u w=1.64e+07u l=1.6e+07u
X158 VSS sky130_fd_sc_hd__dlymetal6s6s_1_4/A a_2598_37506# VSS sky130_fd_pr__nfet_01v8 ad=0p pd=0u as=1.092e+11p ps=1.36e+06u w=420000u l=150000u
X159 VSS vcm VSS VSS sky130_fd_pr__nfet_01v8 ad=0p pd=0u as=0p ps=0u w=1.64e+07u l=1.6e+07u
X160 VSS vcm VSS VSS sky130_fd_pr__nfet_01v8 ad=0p pd=0u as=0p ps=0u w=1.64e+07u l=1.6e+07u
X161 VDD a_3378_36936# sky130_fd_sc_hd__buf_4_2/X VDD sky130_fd_pr__pfet_01v8_hvt ad=0p pd=0u as=0p ps=0u w=1e+06u l=150000u
X162 a_2775_38050# a_2598_38050# VSS VSS sky130_fd_pr__nfet_01v8 ad=1.69e+11p pd=1.82e+06u as=0p ps=0u w=650000u l=150000u
X163 adc_noise_decoup_cell1_2[1|16]/mimcap_top adc_noise_decoup_cell1_2[1|16]/mimcap_bot sky130_fd_pr__cap_mim_m3_1 l=1.72e+07u w=1.72e+07u
X164 adc_noise_decoup_cell1_2[1|16]/mimcap_top adc_noise_decoup_cell1_2[1|16]/mimcap_bot sky130_fd_pr__cap_mim_m3_1 l=1.72e+07u w=1.72e+07u
X165 adc_noise_decoup_cell1_1[5|1]/mimcap_top VSS sky130_fd_pr__cap_mim_m3_1 l=1.72e+07u w=1.72e+07u
X166 VSS vcm VSS VSS sky130_fd_pr__nfet_01v8 ad=0p pd=0u as=0p ps=0u w=1.64e+07u l=1.6e+07u
X167 adc_noise_decoup_cell1_1[5|1]/mimcap_top VSS sky130_fd_pr__cap_mim_m3_1 l=1.72e+07u w=1.72e+07u
X168 VSS vcm VSS VSS sky130_fd_pr__nfet_01v8 ad=0p pd=0u as=0p ps=0u w=1.64e+07u l=1.6e+07u
X169 VDD sky130_fd_sc_hd__inv_1_0/Y sky130_fd_sc_hd__inv_1_2/Y VDD sky130_fd_pr__pfet_01v8_hvt ad=0p pd=0u as=2.6e+11p ps=2.52e+06u w=1e+06u l=150000u
X170 a_3695_38050# a_3518_38050# VDD VDD sky130_fd_pr__pfet_01v8_hvt ad=2.6e+11p pd=2.52e+06u as=0p ps=0u w=1e+06u l=150000u
X171 sky130_fd_sc_hd__buf_4_2/X a_3378_36936# VDD VDD sky130_fd_pr__pfet_01v8_hvt ad=0p pd=0u as=0p ps=0u w=1e+06u l=150000u
X172 adc_noise_decoup_cell1_1[5|1]/mimcap_top VSS sky130_fd_pr__cap_mim_m3_1 l=1.72e+07u w=1.72e+07u
X173 adc_noise_decoup_cell1_2[1|16]/mimcap_top adc_noise_decoup_cell1_2[1|16]/mimcap_bot sky130_fd_pr__cap_mim_m3_1 l=1.72e+07u w=1.72e+07u
X174 VSS vcm VSS VSS sky130_fd_pr__nfet_01v8 ad=0p pd=0u as=0p ps=0u w=1.64e+07u l=1.6e+07u
X175 adc_noise_decoup_cell1_1[5|1]/mimcap_top VSS sky130_fd_pr__cap_mim_m3_1 l=1.72e+07u w=1.72e+07u
X176 VSS vcm VSS VSS sky130_fd_pr__nfet_01v8 ad=0p pd=0u as=0p ps=0u w=1.64e+07u l=1.6e+07u
X177 VSS sky130_fd_sc_hd__nand2_1_0/B a_1448_38050# VSS sky130_fd_pr__nfet_01v8 ad=0p pd=0u as=1.755e+11p ps=1.84e+06u w=650000u l=150000u
X178 VSS a_3978_37506# a_4084_37506# VSS sky130_fd_pr__nfet_01v8 ad=0p pd=0u as=1.092e+11p ps=1.36e+06u w=420000u l=150000u
X179 adc_noise_decoup_cell1_2[1|16]/mimcap_top adc_noise_decoup_cell1_2[1|16]/mimcap_bot sky130_fd_pr__cap_mim_m3_1 l=1.72e+07u w=1.72e+07u
X180 VDD sky130_fd_sc_hd__dlymetal6s6s_1_5/X sky130_fd_sc_hd__inv_1_1/Y VDD sky130_fd_pr__pfet_01v8_hvt ad=0p pd=0u as=2.6e+11p ps=2.52e+06u w=1e+06u l=150000u
X181 adc_noise_decoup_cell1_2[1|16]/mimcap_top adc_noise_decoup_cell1_2[1|16]/mimcap_bot sky130_fd_pr__cap_mim_m3_1 l=1.72e+07u w=1.72e+07u
X182 VSS vcm VSS VSS sky130_fd_pr__nfet_01v8 ad=0p pd=0u as=0p ps=0u w=1.64e+07u l=1.6e+07u
X183 VSS vcm VSS VSS sky130_fd_pr__nfet_01v8 ad=0p pd=0u as=0p ps=0u w=1.64e+07u l=1.6e+07u
X184 a_2138_38050# a_1961_38050# VDD VDD sky130_fd_pr__pfet_01v8_hvt ad=2.6e+11p pd=2.52e+06u as=0p ps=0u w=1e+06u l=150000u
X185 sky130_fd_sc_hd__buf_4_3/X a_2826_36936# VDD VDD sky130_fd_pr__pfet_01v8_hvt ad=5.4e+11p pd=5.08e+06u as=0p ps=0u w=1e+06u l=150000u
X186 VDD sky130_fd_sc_hd__buf_4_2/X adc_noise_decoup_cell1_2[1|16]/mimcap_top VSS sky130_fd_pr__nfet_01v8 ad=1.335e+12p pd=1.83e+07u as=4.35e+11p ps=4.74e+06u w=500000u l=500000u
X187 VSS vcm VSS VSS sky130_fd_pr__nfet_01v8 ad=0p pd=0u as=0p ps=0u w=1.64e+07u l=1.6e+07u
X188 VSS vcm VSS VSS sky130_fd_pr__nfet_01v8 ad=0p pd=0u as=0p ps=0u w=1.64e+07u l=1.6e+07u
X189 adc_noise_decoup_cell1_1[5|1]/mimcap_top VSS sky130_fd_pr__cap_mim_m3_1 l=1.72e+07u w=1.72e+07u
X190 adc_noise_decoup_cell1_2[1|16]/mimcap_top adc_noise_decoup_cell1_2[1|16]/mimcap_bot sky130_fd_pr__cap_mim_m3_1 l=1.72e+07u w=1.72e+07u
X191 a_3695_37506# a_3518_37506# VSS VSS sky130_fd_pr__nfet_01v8 ad=1.69e+11p pd=1.82e+06u as=0p ps=0u w=650000u l=150000u
X192 adc_noise_decoup_cell1_1[5|1]/mimcap_top sky130_fd_sc_hd__buf_4_2/X adc_noise_decoup_cell1_2[1|16]/mimcap_bot VSS sky130_fd_pr__nfet_01v8 ad=0p pd=0u as=5.8e+11p ps=6.32e+06u w=500000u l=500000u
X193 VSS vcm VSS VSS sky130_fd_pr__nfet_01v8 ad=0p pd=0u as=0p ps=0u w=1.64e+07u l=1.6e+07u
X194 VDD a_3378_38568# sky130_fd_sc_hd__buf_4_0/X VDD sky130_fd_pr__pfet_01v8_hvt ad=0p pd=0u as=5.4e+11p ps=5.08e+06u w=1e+06u l=150000u
X195 adc_noise_decoup_cell1_2[1|16]/mimcap_top adc_noise_decoup_cell1_2[1|16]/mimcap_bot sky130_fd_pr__cap_mim_m3_1 l=1.72e+07u w=1.72e+07u
X196 adc_noise_decoup_cell1_2[1|16]/mimcap_top adc_noise_decoup_cell1_2[1|16]/mimcap_bot sky130_fd_pr__cap_mim_m3_1 l=1.72e+07u w=1.72e+07u
X197 sky130_fd_sc_hd__inv_1_4/Y clk VDD VDD sky130_fd_pr__pfet_01v8_hvt ad=2.6e+11p pd=2.52e+06u as=0p ps=0u w=1e+06u l=150000u
X198 a_2826_36936# sky130_fd_sc_hd__nand2_1_0/B VDD VDD sky130_fd_pr__pfet_01v8_hvt ad=2.6e+11p pd=2.52e+06u as=0p ps=0u w=1e+06u l=150000u
X199 VSS vcm VSS VSS sky130_fd_pr__nfet_01v8 ad=0p pd=0u as=0p ps=0u w=1.64e+07u l=1.6e+07u
X200 VSS vcm VSS VSS sky130_fd_pr__nfet_01v8 ad=0p pd=0u as=0p ps=0u w=1.64e+07u l=1.6e+07u
X201 adc_noise_decoup_cell1_2[1|16]/mimcap_top adc_noise_decoup_cell1_2[1|16]/mimcap_bot sky130_fd_pr__cap_mim_m3_1 l=1.72e+07u w=1.72e+07u
X202 a_1448_38050# clk sky130_fd_sc_hd__dlymetal6s6s_1_0/A VSS sky130_fd_pr__nfet_01v8 ad=0p pd=0u as=1.69e+11p ps=1.82e+06u w=650000u l=150000u
X203 a_3058_37506# a_2881_37506# VDD VDD sky130_fd_pr__pfet_01v8_hvt ad=2.6e+11p pd=2.52e+06u as=0p ps=0u w=1e+06u l=150000u
X204 adc_noise_decoup_cell1_1[5|1]/mimcap_top VSS sky130_fd_pr__cap_mim_m3_1 l=1.72e+07u w=1.72e+07u
X205 VSS vcm VSS VSS sky130_fd_pr__nfet_01v8 ad=0p pd=0u as=0p ps=0u w=1.64e+07u l=1.6e+07u
X206 vcm sky130_fd_sc_hd__buf_4_1/X adc_noise_decoup_cell1_1[5|1]/mimcap_top VDD sky130_fd_pr__pfet_01v8 ad=0p pd=0u as=0p ps=0u w=1e+06u l=1e+06u
X207 VDD a_3695_38050# a_3801_38050# VDD sky130_fd_pr__pfet_01v8_hvt ad=0p pd=0u as=1.092e+11p ps=1.36e+06u w=420000u l=150000u
X208 adc_noise_decoup_cell1_2[1|16]/mimcap_top sky130_fd_sc_hd__buf_4_2/X VDD VSS sky130_fd_pr__nfet_01v8 ad=0p pd=0u as=0p ps=0u w=500000u l=500000u
X209 vcm sky130_fd_sc_hd__buf_4_0/X adc_noise_decoup_cell1_1[5|1]/mimcap_top VSS sky130_fd_pr__nfet_01v8 ad=0p pd=0u as=0p ps=0u w=500000u l=500000u
X210 a_2138_37506# a_1961_37506# VSS VSS sky130_fd_pr__nfet_01v8 ad=1.69e+11p pd=1.82e+06u as=0p ps=0u w=650000u l=150000u
X211 VSS vcm VSS VSS sky130_fd_pr__nfet_01v8 ad=0p pd=0u as=0p ps=0u w=1.64e+07u l=1.6e+07u
X212 VSS vcm VSS VSS sky130_fd_pr__nfet_01v8 ad=0p pd=0u as=0p ps=0u w=1.64e+07u l=1.6e+07u
X213 adc_noise_decoup_cell1_1[5|1]/mimcap_top VSS sky130_fd_pr__cap_mim_m3_1 l=1.72e+07u w=1.72e+07u
X214 adc_noise_decoup_cell1_2[1|16]/mimcap_top adc_noise_decoup_cell1_2[1|16]/mimcap_bot sky130_fd_pr__cap_mim_m3_1 l=1.72e+07u w=1.72e+07u
X215 VSS vcm VSS VSS sky130_fd_pr__nfet_01v8 ad=0p pd=0u as=0p ps=0u w=1.64e+07u l=1.6e+07u
X216 adc_noise_decoup_cell1_2[1|16]/mimcap_bot sky130_fd_sc_hd__buf_4_2/X adc_noise_decoup_cell1_1[5|1]/mimcap_top VSS sky130_fd_pr__nfet_01v8 ad=0p pd=0u as=0p ps=0u w=500000u l=500000u
X217 VSS vcm VSS VSS sky130_fd_pr__nfet_01v8 ad=0p pd=0u as=0p ps=0u w=1.64e+07u l=1.6e+07u
X218 VSS vcm VSS VSS sky130_fd_pr__nfet_01v8 ad=0p pd=0u as=0p ps=0u w=1.64e+07u l=1.6e+07u
X219 VSS vcm VSS VSS sky130_fd_pr__nfet_01v8 ad=0p pd=0u as=0p ps=0u w=1.64e+07u l=1.6e+07u
X220 sky130_fd_sc_hd__buf_4_0/X a_3378_38568# VDD VDD sky130_fd_pr__pfet_01v8_hvt ad=0p pd=0u as=0p ps=0u w=1e+06u l=150000u
X221 VDD a_3695_37506# a_3801_37506# VDD sky130_fd_pr__pfet_01v8_hvt ad=0p pd=0u as=1.092e+11p ps=1.36e+06u w=420000u l=150000u
X222 VDD a_2826_36936# sky130_fd_sc_hd__buf_4_3/X VDD sky130_fd_pr__pfet_01v8_hvt ad=0p pd=0u as=0p ps=0u w=1e+06u l=150000u
X223 VSS vcm VSS VSS sky130_fd_pr__nfet_01v8 ad=0p pd=0u as=0p ps=0u w=1.64e+07u l=1.6e+07u
X224 adc_noise_decoup_cell1_2[1|16]/mimcap_top sky130_fd_sc_hd__buf_4_0/X vcm VSS sky130_fd_pr__nfet_01v8 ad=0p pd=0u as=0p ps=0u w=500000u l=500000u
X225 VSS vcm VSS VSS sky130_fd_pr__nfet_01v8 ad=0p pd=0u as=0p ps=0u w=1.64e+07u l=1.6e+07u
X226 adc_noise_decoup_cell1_2[1|16]/mimcap_top adc_noise_decoup_cell1_2[1|16]/mimcap_bot sky130_fd_pr__cap_mim_m3_1 l=1.72e+07u w=1.72e+07u
X227 VSS vcm VSS VSS sky130_fd_pr__nfet_01v8 ad=0p pd=0u as=0p ps=0u w=1.64e+07u l=1.6e+07u
X228 sky130_fd_sc_hd__dlymetal6s6s_1_5/A a_3164_37506# VDD VDD sky130_fd_pr__pfet_01v8_hvt ad=2.6e+11p pd=2.52e+06u as=0p ps=0u w=1e+06u l=150000u
X229 a_3378_36936# sky130_fd_sc_hd__inv_1_1/Y VDD VDD sky130_fd_pr__pfet_01v8_hvt ad=2.6e+11p pd=2.52e+06u as=0p ps=0u w=1e+06u l=150000u
X230 VSS vcm VSS VSS sky130_fd_pr__nfet_01v8 ad=0p pd=0u as=0p ps=0u w=1.64e+07u l=1.6e+07u
X231 adc_noise_decoup_cell1_2[1|16]/mimcap_top adc_noise_decoup_cell1_2[1|16]/mimcap_bot sky130_fd_pr__cap_mim_m3_1 l=1.72e+07u w=1.72e+07u
X232 a_3058_38050# a_2881_38050# VSS VSS sky130_fd_pr__nfet_01v8 ad=1.69e+11p pd=1.82e+06u as=0p ps=0u w=650000u l=150000u
X233 a_1452_37826# sky130_fd_sc_hd__inv_1_4/Y VSS VSS sky130_fd_pr__nfet_01v8 ad=1.755e+11p pd=1.84e+06u as=0p ps=0u w=650000u l=150000u
X234 adc_noise_decoup_cell1_1[5|1]/mimcap_top VSS sky130_fd_pr__cap_mim_m3_1 l=1.72e+07u w=1.72e+07u
X235 VSS vcm VSS VSS sky130_fd_pr__nfet_01v8 ad=0p pd=0u as=0p ps=0u w=1.64e+07u l=1.6e+07u
X236 adc_noise_decoup_cell1_1[5|1]/mimcap_top VSS sky130_fd_pr__cap_mim_m3_1 l=1.72e+07u w=1.72e+07u
X237 VSS vcm VSS VSS sky130_fd_pr__nfet_01v8 ad=0p pd=0u as=0p ps=0u w=1.64e+07u l=1.6e+07u
X238 adc_noise_decoup_cell1_1[5|1]/mimcap_top VSS sky130_fd_pr__cap_mim_m3_1 l=1.72e+07u w=1.72e+07u
X239 VSS vcm VSS VSS sky130_fd_pr__nfet_01v8 ad=0p pd=0u as=0p ps=0u w=1.64e+07u l=1.6e+07u
X240 vcm sky130_fd_sc_hd__buf_4_0/X adc_noise_decoup_cell1_2[1|16]/mimcap_top VSS sky130_fd_pr__nfet_01v8 ad=0p pd=0u as=0p ps=0u w=500000u l=500000u
X241 vcm sky130_fd_sc_hd__buf_4_1/X adc_noise_decoup_cell1_2[1|16]/mimcap_top VDD sky130_fd_pr__pfet_01v8 ad=0p pd=0u as=0p ps=0u w=1e+06u l=1e+06u
X242 VDD a_2826_36936# sky130_fd_sc_hd__buf_4_3/X VDD sky130_fd_pr__pfet_01v8_hvt ad=0p pd=0u as=0p ps=0u w=1e+06u l=150000u
X243 VSS vcm VSS VSS sky130_fd_pr__nfet_01v8 ad=0p pd=0u as=0p ps=0u w=1.64e+07u l=1.6e+07u
X244 adc_noise_decoup_cell1_1[5|1]/mimcap_top VSS sky130_fd_pr__cap_mim_m3_1 l=1.72e+07u w=1.72e+07u
X245 adc_noise_decoup_cell1_2[1|16]/mimcap_top adc_noise_decoup_cell1_2[1|16]/mimcap_bot sky130_fd_pr__cap_mim_m3_1 l=1.72e+07u w=1.72e+07u
X246 VDD sky130_fd_sc_hd__dlymetal6s6s_1_2/A a_2598_38050# VDD sky130_fd_pr__pfet_01v8_hvt ad=0p pd=0u as=1.092e+11p ps=1.36e+06u w=420000u l=150000u
X247 VSS vcm VSS VSS sky130_fd_pr__nfet_01v8 ad=0p pd=0u as=0p ps=0u w=1.64e+07u l=1.6e+07u