* NGSPICE file created from adc_clkgen_with_edgedetect.ext - technology: sky130A

.subckt sky130_fd_sc_hd__decap_3 VPWR VGND VNB VPB
X0 VPWR VGND VPWR VPB sky130_fd_pr__pfet_01v8_hvt ad=0p pd=0u as=0p ps=0u w=870000u l=590000u
X1 VGND VPWR VGND VNB sky130_fd_pr__nfet_01v8 ad=0p pd=0u as=0p ps=0u w=550000u l=590000u
.ends

.subckt sky130_fd_sc_hd__conb_1 LO HI VPB VNB VGND VPWR
R0 HI VPWR sky130_fd_pr__res_generic_po w=480000u l=45000u
R1 VGND LO sky130_fd_pr__res_generic_po w=480000u l=45000u
.ends

.subckt sky130_fd_sc_hd__decap_6 VPWR VGND VNB VPB
X0 VPWR VGND VPWR VPB sky130_fd_pr__pfet_01v8_hvt ad=0p pd=0u as=0p ps=0u w=870000u l=1.97e+06u
X1 VGND VPWR VGND VNB sky130_fd_pr__nfet_01v8 ad=0p pd=0u as=0p ps=0u w=550000u l=1.97e+06u
.ends

.subckt sky130_fd_sc_hd__decap_4 VGND VPWR VNB VPB
X0 VPWR VGND VPWR VPB sky130_fd_pr__pfet_01v8_hvt ad=0p pd=0u as=0p ps=0u w=870000u l=1.05e+06u
X1 VGND VPWR VGND VNB sky130_fd_pr__nfet_01v8 ad=0p pd=0u as=0p ps=0u w=550000u l=1.05e+06u
.ends

.subckt sky130_fd_sc_hd__mux2_1 VGND VPWR S A1 A0 X VNB VPB
X0 VPWR a_505_21# a_535_374# VPB sky130_fd_pr__pfet_01v8_hvt ad=0p pd=0u as=0p ps=0u w=420000u l=150000u
X1 a_505_21# S VPWR VPB sky130_fd_pr__pfet_01v8_hvt ad=0p pd=0u as=0p ps=0u w=420000u l=150000u
X2 a_218_374# S VPWR VPB sky130_fd_pr__pfet_01v8_hvt ad=0p pd=0u as=0p ps=0u w=420000u l=150000u
X3 VGND a_505_21# a_439_47# VNB sky130_fd_pr__nfet_01v8 ad=0p pd=0u as=0p ps=0u w=420000u l=150000u
X4 a_76_199# A0 a_218_374# VPB sky130_fd_pr__pfet_01v8_hvt ad=0p pd=0u as=0p ps=0u w=420000u l=150000u
X5 a_505_21# S VGND VNB sky130_fd_pr__nfet_01v8 ad=0p pd=0u as=0p ps=0u w=420000u l=150000u
X6 a_439_47# A0 a_76_199# VNB sky130_fd_pr__nfet_01v8 ad=0p pd=0u as=0p ps=0u w=420000u l=150000u
X7 a_535_374# A1 a_76_199# VPB sky130_fd_pr__pfet_01v8_hvt ad=0p pd=0u as=0p ps=0u w=420000u l=150000u
X8 a_76_199# A1 a_218_47# VNB sky130_fd_pr__nfet_01v8 ad=0p pd=0u as=0p ps=0u w=420000u l=150000u
X9 a_218_47# S VGND VNB sky130_fd_pr__nfet_01v8 ad=0p pd=0u as=0p ps=0u w=420000u l=150000u
X10 VPWR a_76_199# X VPB sky130_fd_pr__pfet_01v8_hvt ad=0p pd=0u as=0p ps=0u w=1e+06u l=150000u
X11 VGND a_76_199# X VNB sky130_fd_pr__nfet_01v8 ad=0p pd=0u as=0p ps=0u w=650000u l=150000u
.ends

.subckt sky130_mm_sc_hd_dlyPoly5ns VPWR in out VGND VNB VPB
X0 a_851_95# in VGND VNB sky130_fd_pr__nfet_01v8 ad=0p pd=0u as=0p ps=0u w=420000u l=3.83e+06u
X1 a_1724_71# a_851_95# VGND VNB sky130_fd_pr__nfet_01v8 ad=0p pd=0u as=0p ps=0u w=420000u l=150000u
X2 VPWR out a_1724_71# VNB sky130_fd_pr__nfet_01v8 ad=0p pd=0u as=0p ps=0u w=420000u l=150000u
X3 VGND out a_1783_329# VPB sky130_fd_pr__pfet_01v8 ad=0p pd=0u as=0p ps=0u w=800000u l=150000u
X4 a_1783_329# out VGND VPB sky130_fd_pr__pfet_01v8 ad=0p pd=0u as=0p ps=0u w=800000u l=150000u
X5 a_1724_71# out VPWR VNB sky130_fd_pr__nfet_01v8 ad=0p pd=0u as=0p ps=0u w=420000u l=150000u
X6 VGND a_851_95# VGND VNB sky130_fd_pr__nfet_01v8 ad=0p pd=0u as=0p ps=0u w=1.375e+06u l=2.25e+06u
X7 a_1783_329# a_851_95# VPWR VPB sky130_fd_pr__pfet_01v8 ad=0p pd=0u as=0p ps=0u w=800000u l=150000u
X8 out a_851_95# a_1783_329# VPB sky130_fd_pr__pfet_01v8 ad=0p pd=0u as=0p ps=0u w=800000u l=150000u
X9 a_851_95# in VPWR VPB sky130_fd_pr__pfet_01v8_lvt ad=0p pd=0u as=0p ps=0u w=800000u l=3.83e+06u
X10 out a_851_95# a_1724_71# VNB sky130_fd_pr__nfet_01v8 ad=0p pd=0u as=0p ps=0u w=420000u l=150000u
.ends

.subckt sky130_fd_sc_hd__and2_1 VPWR VGND X B A VNB VPB
X0 VPWR B a_59_75# VPB sky130_fd_pr__pfet_01v8_hvt ad=0p pd=0u as=0p ps=0u w=420000u l=150000u
X1 X a_59_75# VPWR VPB sky130_fd_pr__pfet_01v8_hvt ad=0p pd=0u as=0p ps=0u w=1e+06u l=150000u
X2 VGND B a_145_75# VNB sky130_fd_pr__nfet_01v8 ad=0p pd=0u as=0p ps=0u w=420000u l=150000u
X3 a_59_75# A VPWR VPB sky130_fd_pr__pfet_01v8_hvt ad=0p pd=0u as=0p ps=0u w=420000u l=150000u
X4 X a_59_75# VGND VNB sky130_fd_pr__nfet_01v8 ad=0p pd=0u as=0p ps=0u w=650000u l=150000u
X5 a_145_75# A a_59_75# VNB sky130_fd_pr__nfet_01v8 ad=0p pd=0u as=0p ps=0u w=420000u l=150000u
.ends

.subckt sky130_fd_sc_hd__diode_2 DIODE VGND VPWR VPB VNB
D0 VNB DIODE sky130_fd_pr__diode_pw2nd_05v5 pj=2.64e+06u area=4.347e+11p
.ends

.subckt sky130_fd_sc_hd__decap_8 VPWR VGND VNB VPB
X0 VPWR VGND VPWR VPB sky130_fd_pr__pfet_01v8_hvt ad=0p pd=0u as=0p ps=0u w=870000u l=2.89e+06u
X1 VGND VPWR VGND VNB sky130_fd_pr__nfet_01v8 ad=0p pd=0u as=0p ps=0u w=550000u l=2.89e+06u
.ends

.subckt sky130_fd_sc_hd__buf_1 VGND VPWR X A VNB VPB
X0 VPWR A a_27_47# VPB sky130_fd_pr__pfet_01v8_hvt ad=0p pd=0u as=0p ps=0u w=790000u l=150000u
X1 X a_27_47# VGND VNB sky130_fd_pr__nfet_01v8 ad=0p pd=0u as=0p ps=0u w=520000u l=150000u
X2 X a_27_47# VPWR VPB sky130_fd_pr__pfet_01v8_hvt ad=0p pd=0u as=0p ps=0u w=790000u l=150000u
X3 VGND A a_27_47# VNB sky130_fd_pr__nfet_01v8 ad=0p pd=0u as=0p ps=0u w=520000u l=150000u
.ends

.subckt sky130_fd_sc_hd__buf_4 VPWR VGND X A VNB VPB
X0 VPWR a_27_47# X VPB sky130_fd_pr__pfet_01v8_hvt ad=0p pd=0u as=0p ps=0u w=1e+06u l=150000u
X1 X a_27_47# VPWR VPB sky130_fd_pr__pfet_01v8_hvt ad=0p pd=0u as=0p ps=0u w=1e+06u l=150000u
X2 VPWR a_27_47# X VPB sky130_fd_pr__pfet_01v8_hvt ad=0p pd=0u as=0p ps=0u w=1e+06u l=150000u
X3 X a_27_47# VPWR VPB sky130_fd_pr__pfet_01v8_hvt ad=0p pd=0u as=0p ps=0u w=1e+06u l=150000u
X4 X a_27_47# VGND VNB sky130_fd_pr__nfet_01v8 ad=0p pd=0u as=0p ps=0u w=650000u l=150000u
X5 X a_27_47# VGND VNB sky130_fd_pr__nfet_01v8 ad=0p pd=0u as=0p ps=0u w=650000u l=150000u
X6 VGND a_27_47# X VNB sky130_fd_pr__nfet_01v8 ad=0p pd=0u as=0p ps=0u w=650000u l=150000u
X7 VGND a_27_47# X VNB sky130_fd_pr__nfet_01v8 ad=0p pd=0u as=0p ps=0u w=650000u l=150000u
X8 VPWR A a_27_47# VPB sky130_fd_pr__pfet_01v8_hvt ad=0p pd=0u as=0p ps=0u w=1e+06u l=150000u
X9 VGND A a_27_47# VNB sky130_fd_pr__nfet_01v8 ad=0p pd=0u as=0p ps=0u w=650000u l=150000u
.ends

.subckt sky130_fd_sc_hd__inv_2 A Y VPWR VGND VNB VPB
X0 Y A VPWR VPB sky130_fd_pr__pfet_01v8_hvt ad=0p pd=0u as=0p ps=0u w=1e+06u l=150000u
X1 VGND A Y VNB sky130_fd_pr__nfet_01v8 ad=0p pd=0u as=0p ps=0u w=650000u l=150000u
X2 Y A VGND VNB sky130_fd_pr__nfet_01v8 ad=0p pd=0u as=0p ps=0u w=650000u l=150000u
X3 VPWR A Y VPB sky130_fd_pr__pfet_01v8_hvt ad=0p pd=0u as=0p ps=0u w=1e+06u l=150000u
.ends

.subckt sky130_fd_sc_hd__a211o_2 X A2 A1 B1 C1 VGND VPWR VNB VPB
X0 a_79_21# A1 a_348_47# VNB sky130_fd_pr__nfet_01v8 ad=0p pd=0u as=0p ps=0u w=650000u l=150000u
X1 a_79_21# C1 VGND VNB sky130_fd_pr__nfet_01v8 ad=0p pd=0u as=0p ps=0u w=650000u l=150000u
X2 VGND a_79_21# X VNB sky130_fd_pr__nfet_01v8 ad=0p pd=0u as=0p ps=0u w=650000u l=150000u
X3 VPWR a_79_21# X VPB sky130_fd_pr__pfet_01v8_hvt ad=0p pd=0u as=0p ps=0u w=1e+06u l=150000u
X4 a_79_21# C1 a_585_297# VPB sky130_fd_pr__pfet_01v8_hvt ad=0p pd=0u as=0p ps=0u w=1e+06u l=150000u
X5 VPWR A2 a_299_297# VPB sky130_fd_pr__pfet_01v8_hvt ad=0p pd=0u as=0p ps=0u w=1e+06u l=150000u
X6 a_299_297# A1 VPWR VPB sky130_fd_pr__pfet_01v8_hvt ad=0p pd=0u as=0p ps=0u w=1e+06u l=150000u
X7 a_585_297# B1 a_299_297# VPB sky130_fd_pr__pfet_01v8_hvt ad=0p pd=0u as=0p ps=0u w=1e+06u l=150000u
X8 a_348_47# A2 VGND VNB sky130_fd_pr__nfet_01v8 ad=0p pd=0u as=0p ps=0u w=650000u l=150000u
X9 X a_79_21# VPWR VPB sky130_fd_pr__pfet_01v8_hvt ad=0p pd=0u as=0p ps=0u w=1e+06u l=150000u
X10 X a_79_21# VGND VNB sky130_fd_pr__nfet_01v8 ad=0p pd=0u as=0p ps=0u w=650000u l=150000u
X11 VGND B1 a_79_21# VNB sky130_fd_pr__nfet_01v8 ad=0p pd=0u as=0p ps=0u w=650000u l=150000u
.ends

.subckt adc_clkgen_with_edgedetect VGND VPWR clk_comp clk_dig dlycontrol1[0] dlycontrol1[1]
+ dlycontrol1[2] dlycontrol1[3] dlycontrol1[4] dlycontrol2[0] dlycontrol2[1] dlycontrol2[2]
+ dlycontrol2[3] dlycontrol2[4] dlycontrol3[0] dlycontrol3[1] dlycontrol3[2] dlycontrol3[3]
+ dlycontrol3[4] dlycontrol4[0] dlycontrol4[1] dlycontrol4[2] dlycontrol4[3] dlycontrol4[4]
+ dlycontrol4[5] ena_in enable_dlycontrol ndecision_finish nsample_n nsample_n_buf
+ nsample_p nsample_p_buf sample_n sample_n_buf sample_p sample_p_buf start_conv
XFILLER_5_354 VPWR VGND VGND VPWR sky130_fd_sc_hd__decap_3
X_294_ _294_/LO _294_/HI VPWR VGND VGND VPWR sky130_fd_sc_hd__conb_1
X_363_ _363_/LO _363_/HI VPWR VGND VGND VPWR sky130_fd_sc_hd__conb_1
XFILLER_12_43 VPWR VGND VGND VPWR sky130_fd_sc_hd__decap_6
X_346_ _346_/LO _346_/HI VPWR VGND VGND VPWR sky130_fd_sc_hd__conb_1
XFILLER_18_203 VGND VPWR VGND VPWR sky130_fd_sc_hd__decap_4
X_277_ _277_/LO _277_/HI VPWR VGND VGND VPWR sky130_fd_sc_hd__conb_1
Xedgedetect.dly200cell.genblk2\[9\].mux1 VGND VPWR _405_/LO edgedetect.dly200cell.genblk2\[9\].and1/B
+ edgedetect.dly200cell.genblk2\[9\].mux1/A0 edgedetect.dly200cell.genblk2\[9\].mux1/X
+ VGND VPWR sky130_fd_sc_hd__mux2_1
XFILLER_9_55 VPWR VGND VGND VPWR sky130_fd_sc_hd__decap_6
X_329_ _329_/LO _329_/HI VPWR VGND VGND VPWR sky130_fd_sc_hd__conb_1
XFILLER_14_272 VPWR VGND VGND VPWR sky130_fd_sc_hd__decap_6
Xedgedetect.dly200cell.genblk2\[17\].delay_unit VPWR edgedetect.dly200cell.genblk2\[17\].and1/X
+ edgedetect.dly200cell.genblk2\[17\].mux1/A0 VGND VGND VPWR sky130_mm_sc_hd_dlyPoly5ns
XFILLER_20_275 VGND VPWR VGND VPWR sky130_fd_sc_hd__decap_4
XFILLER_11_286 VGND VPWR VGND VPWR sky130_fd_sc_hd__decap_4
Xedgedetect.dly200cell.genblk2\[29\].mux1 VGND VPWR _387_/LO edgedetect.dly200cell.genblk2\[29\].and1/B
+ edgedetect.dly200cell.genblk2\[29\].mux1/A0 edgedetect.dly200cell.genblk2\[30\].and1/B
+ VGND VPWR sky130_fd_sc_hd__mux2_1
XFILLER_18_75 VGND VPWR VGND VPWR sky130_fd_sc_hd__decap_4
Xclkgen.delay_100ns_2.genblk2\[14\].mux1 VGND VPWR _331_/LO clkgen.delay_100ns_2.genblk2\[14\].and1/B
+ clkgen.delay_100ns_2.genblk2\[14\].mux1/A0 clkgen.delay_100ns_2.genblk2\[15\].and1/B
+ VGND VPWR sky130_fd_sc_hd__mux2_1
Xedgedetect.dly200cell.genblk2\[12\].mux1 VGND VPWR _369_/LO edgedetect.dly200cell.genblk2\[12\].and1/B
+ edgedetect.dly200cell.genblk2\[12\].mux1/A0 edgedetect.dly200cell.genblk2\[13\].and1/B
+ VGND VPWR sky130_fd_sc_hd__mux2_1
Xclkgen.delay_100ns_2.genblk2\[18\].and1 VPWR VGND clkgen.delay_100ns_2.genblk2\[18\].and1/X
+ clkgen.delay_100ns_2.genblk2\[18\].and1/B _235_/HI VGND VPWR sky130_fd_sc_hd__and2_1
XFILLER_13_3 VPWR VGND VGND VPWR sky130_fd_sc_hd__decap_6
XANTENNA_5 _238_/HI VGND VPWR VPWR VGND sky130_fd_sc_hd__diode_2
XFILLER_15_32 VGND VPWR VGND VPWR sky130_fd_sc_hd__decap_4
XFILLER_15_54 VPWR VGND VGND VPWR sky130_fd_sc_hd__decap_8
Xedgedetect.dly200cell.genblk2\[16\].and1 VPWR VGND edgedetect.dly200cell.genblk2\[16\].and1/X
+ edgedetect.dly200cell.genblk2\[16\].and1/B _273_/HI VGND VPWR sky130_fd_sc_hd__and2_1
XFILLER_16_164 VGND VPWR VGND VPWR sky130_fd_sc_hd__decap_4
XFILLER_7_8 VGND VPWR VGND VPWR sky130_fd_sc_hd__decap_4
XFILLER_3_13 VGND VPWR VGND VPWR sky130_fd_sc_hd__decap_4
X_362_ _362_/LO _362_/HI VPWR VGND VGND VPWR sky130_fd_sc_hd__conb_1
X_293_ _293_/LO _293_/HI VPWR VGND VGND VPWR sky130_fd_sc_hd__conb_1
XFILLER_10_148 VPWR VGND VGND VPWR sky130_fd_sc_hd__decap_6
XFILLER_12_55 VGND VPWR VGND VPWR sky130_fd_sc_hd__decap_4
XFILLER_18_237 VPWR VGND VGND VPWR sky130_fd_sc_hd__decap_6
Xedgedetect.dly200cell.genblk2\[24\].delay_unit VPWR edgedetect.dly200cell.genblk2\[24\].and1/X
+ edgedetect.dly200cell.genblk2\[24\].mux1/A0 VGND VGND VPWR sky130_mm_sc_hd_dlyPoly5ns
X_345_ _345_/LO _345_/HI VPWR VGND VGND VPWR sky130_fd_sc_hd__conb_1
X_276_ _276_/LO _276_/HI VPWR VGND VGND VPWR sky130_fd_sc_hd__conb_1
XFILLER_17_281 VGND VPWR VGND VPWR sky130_fd_sc_hd__decap_4
XFILLER_15_207 VPWR VGND VGND VPWR sky130_fd_sc_hd__decap_8
Xclkgen.delay_100ns_1.genblk2\[1\].mux1 VGND VPWR _317_/LO clkgen.delay_100ns_1.genblk2\[1\].and1/B
+ clkgen.delay_100ns_1.genblk2\[1\].mux1/A0 clkgen.delay_100ns_1.genblk2\[2\].and1/B
+ VGND VPWR sky130_fd_sc_hd__mux2_1
X_328_ _328_/LO _328_/HI VPWR VGND VGND VPWR sky130_fd_sc_hd__conb_1
X_259_ _259_/LO _259_/HI VPWR VGND VGND VPWR sky130_fd_sc_hd__conb_1
XFILLER_20_254 VGND VPWR VGND VPWR sky130_fd_sc_hd__decap_4
Xclkgen.delay_100ns_1.genblk2\[5\].and1 VPWR VGND clkgen.delay_100ns_1.genblk2\[5\].and1/X
+ clkgen.delay_100ns_1.genblk2\[5\].and1/B _221_/HI VGND VPWR sky130_fd_sc_hd__and2_1
XFILLER_11_243 VGND VPWR VGND VPWR sky130_fd_sc_hd__decap_4
XFILLER_18_54 VGND VPWR VGND VPWR sky130_fd_sc_hd__decap_4
Xedgedetect.dly200cell.genblk2\[35\].mux1 VGND VPWR _394_/LO edgedetect.dly200cell.genblk2\[35\].and1/B
+ edgedetect.dly200cell.genblk2\[35\].mux1/A0 edgedetect.dly200cell.genblk2\[36\].and1/B
+ VGND VPWR sky130_fd_sc_hd__mux2_1
Xedgedetect.dly200cell.genblk2\[3\].delay_unit VPWR edgedetect.dly200cell.genblk2\[3\].and1/X
+ edgedetect.dly200cell.genblk2\[3\].mux1/A0 VGND VGND VPWR sky130_mm_sc_hd_dlyPoly5ns
Xclkgen.delay_100ns_3.genblk2\[1\].delay_unit VPWR clkgen.delay_100ns_3.genblk2\[1\].and1/X
+ clkgen.delay_100ns_3.genblk2\[1\].mux1/A0 VGND VGND VPWR sky130_mm_sc_hd_dlyPoly5ns
Xclkgen.delay_100ns_2.genblk2\[10\].delay_unit VPWR clkgen.delay_100ns_2.genblk2\[10\].and1/X
+ clkgen.delay_100ns_2.genblk2\[10\].mux1/A0 VGND VGND VPWR sky130_mm_sc_hd_dlyPoly5ns
XFILLER_20_99 VGND VPWR VGND VPWR sky130_fd_sc_hd__decap_4
XFILLER_20_22 VGND VPWR VGND VPWR sky130_fd_sc_hd__decap_4
XANTENNA_6 _246_/HI VGND VPWR VPWR VGND sky130_fd_sc_hd__diode_2
Xedgedetect.dly200cell.genblk2\[39\].and1 VPWR VGND edgedetect.dly200cell.genblk2\[39\].and1/X
+ edgedetect.dly200cell.genblk2\[39\].and1/B _298_/HI VGND VPWR sky130_fd_sc_hd__and2_1
XFILLER_16_335 VPWR VGND VGND VPWR sky130_fd_sc_hd__decap_6
XFILLER_19_173 VGND VPWR VGND VPWR sky130_fd_sc_hd__decap_4
Xclkgen.delay_100ns_3.genblk2\[8\].mux1 VGND VPWR _364_/LO clkgen.delay_100ns_3.genblk2\[8\].and1/B
+ clkgen.delay_100ns_3.genblk2\[8\].mux1/A0 clkgen.delay_100ns_3.genblk2\[9\].and1/B
+ VGND VPWR sky130_fd_sc_hd__mux2_1
Xclkgen.delay_100ns_1.genblk2\[19\].mux1 VGND VPWR _316_/LO clkgen.delay_100ns_1.genblk2\[19\].and1/B
+ clkgen.delay_100ns_1.genblk2\[19\].mux1/A0 _205_/A VGND VPWR sky130_fd_sc_hd__mux2_1
Xedgedetect.dly200cell.genblk2\[29\].delay_unit VPWR edgedetect.dly200cell.genblk2\[29\].and1/X
+ edgedetect.dly200cell.genblk2\[29\].mux1/A0 VGND VGND VPWR sky130_mm_sc_hd_dlyPoly5ns
XFILLER_15_88 VGND VPWR VGND VPWR sky130_fd_sc_hd__decap_4
Xedgedetect.dly200cell.genblk2\[2\].and1 VPWR VGND edgedetect.dly200cell.genblk2\[2\].and1/X
+ edgedetect.dly200cell.genblk2\[2\].and1/B _288_/HI VGND VPWR sky130_fd_sc_hd__and2_1
XFILLER_16_121 VPWR VGND VGND VPWR sky130_fd_sc_hd__decap_6
XFILLER_16_187 VPWR VGND VGND VPWR sky130_fd_sc_hd__decap_8
XFILLER_16_198 VGND VPWR VGND VPWR sky130_fd_sc_hd__decap_4
Xedgedetect.dly200cell.genblk2\[31\].delay_unit VPWR edgedetect.dly200cell.genblk2\[31\].and1/X
+ edgedetect.dly200cell.genblk2\[31\].mux1/A0 VGND VGND VPWR sky130_mm_sc_hd_dlyPoly5ns
XFILLER_8_353 VGND VPWR VGND VPWR sky130_fd_sc_hd__decap_4
Xclkgen.delay_100ns_3.genblk2\[15\].mux1 VGND VPWR _352_/LO clkgen.delay_100ns_3.genblk2\[15\].and1/B
+ clkgen.delay_100ns_3.genblk2\[15\].mux1/A0 clkgen.delay_100ns_3.genblk2\[16\].and1/B
+ VGND VPWR sky130_fd_sc_hd__mux2_1
Xedgedetect.dly200cell.genblk2\[22\].and1 VPWR VGND edgedetect.dly200cell.genblk2\[22\].and1/X
+ edgedetect.dly200cell.genblk2\[22\].and1/B _280_/HI VGND VPWR sky130_fd_sc_hd__and2_1
Xclkgen.delay_100ns_3.genblk2\[19\].and1 VPWR VGND clkgen.delay_100ns_3.genblk2\[19\].and1/X
+ clkgen.delay_100ns_3.genblk2\[19\].and1/B _256_/HI VGND VPWR sky130_fd_sc_hd__and2_1
X_361_ _361_/LO _361_/HI VPWR VGND VGND VPWR sky130_fd_sc_hd__conb_1
X_292_ _292_/LO _292_/HI VPWR VGND VGND VPWR sky130_fd_sc_hd__conb_1
XFILLER_13_113 VGND VPWR VGND VPWR sky130_fd_sc_hd__decap_4
XFILLER_13_146 VGND VPWR VGND VPWR sky130_fd_sc_hd__decap_4
XFILLER_8_150 VGND VPWR VGND VPWR sky130_fd_sc_hd__decap_4
XFILLER_8_161 VGND VPWR VGND VPWR sky130_fd_sc_hd__decap_4
X_275_ _275_/LO _275_/HI VPWR VGND VGND VPWR sky130_fd_sc_hd__conb_1
X_344_ _344_/LO _344_/HI VPWR VGND VGND VPWR sky130_fd_sc_hd__conb_1
XFILLER_18_249 VGND VPWR VGND VPWR sky130_fd_sc_hd__decap_4
Xedgedetect.dly200cell.genblk2\[8\].delay_unit VPWR edgedetect.dly200cell.genblk2\[8\].and1/X
+ edgedetect.dly200cell.genblk2\[8\].mux1/A0 VGND VGND VPWR sky130_mm_sc_hd_dlyPoly5ns
Xclkgen.delay_100ns_3.genblk2\[6\].delay_unit VPWR clkgen.delay_100ns_3.genblk2\[6\].and1/X
+ clkgen.delay_100ns_3.genblk2\[6\].mux1/A0 VGND VGND VPWR sky130_mm_sc_hd_dlyPoly5ns
Xclkgen.delay_100ns_2.genblk2\[15\].delay_unit VPWR clkgen.delay_100ns_2.genblk2\[15\].and1/X
+ clkgen.delay_100ns_2.genblk2\[15\].mux1/A0 VGND VGND VPWR sky130_mm_sc_hd_dlyPoly5ns
XFILLER_17_260 VGND VPWR VGND VPWR sky130_fd_sc_hd__decap_4
XFILLER_2_134 VGND VPWR VGND VPWR sky130_fd_sc_hd__decap_4
XFILLER_2_167 VGND VPWR VGND VPWR sky130_fd_sc_hd__decap_4
XFILLER_9_13 VGND VPWR VGND VPWR sky130_fd_sc_hd__decap_4
Xclkgen.delay_100ns_2.genblk2\[3\].and1 VPWR VGND clkgen.delay_100ns_2.genblk2\[3\].and1/X
+ clkgen.delay_100ns_2.genblk2\[3\].and1/B _239_/HI VGND VPWR sky130_fd_sc_hd__and2_1
XFILLER_14_252 VPWR VGND VGND VPWR sky130_fd_sc_hd__decap_6
XFILLER_14_263 VGND VPWR VGND VPWR sky130_fd_sc_hd__decap_4
X_258_ _258_/LO _258_/HI VPWR VGND VGND VPWR sky130_fd_sc_hd__conb_1
X_327_ _327_/LO _327_/HI VPWR VGND VGND VPWR sky130_fd_sc_hd__conb_1
XFILLER_18_99 VPWR VGND VGND VPWR sky130_fd_sc_hd__decap_6
Xedgedetect.dly200cell.genblk2\[36\].delay_unit VPWR edgedetect.dly200cell.genblk2\[36\].and1/X
+ edgedetect.dly200cell.genblk2\[36\].mux1/A0 VGND VGND VPWR sky130_mm_sc_hd_dlyPoly5ns
XFILLER_19_344 VGND VPWR VGND VPWR sky130_fd_sc_hd__decap_4
XFILLER_20_89 VGND VPWR VGND VPWR sky130_fd_sc_hd__decap_4
XFILLER_3_240 VPWR VGND VGND VPWR sky130_fd_sc_hd__decap_8
XANTENNA_7 _266_/HI VGND VPWR VPWR VGND sky130_fd_sc_hd__diode_2
XFILLER_19_130 VGND VPWR VGND VPWR sky130_fd_sc_hd__decap_4
XFILLER_0_276 VPWR VGND VGND VPWR sky130_fd_sc_hd__decap_3
XFILLER_15_45 VGND VPWR VGND VPWR sky130_fd_sc_hd__decap_4
X_360_ _360_/LO _360_/HI VPWR VGND VGND VPWR sky130_fd_sc_hd__conb_1
X_291_ _291_/LO _291_/HI VPWR VGND VGND VPWR sky130_fd_sc_hd__conb_1
XFILLER_7_90 VGND VPWR VGND VPWR sky130_fd_sc_hd__decap_4
XFILLER_13_136 VGND VPWR VGND VPWR sky130_fd_sc_hd__decap_4
XFILLER_3_26 VGND VPWR VGND VPWR sky130_fd_sc_hd__decap_4
XFILLER_5_302 VPWR VGND VGND VPWR sky130_fd_sc_hd__decap_8
XFILLER_10_106 VGND VPWR VGND VPWR sky130_fd_sc_hd__decap_4
X_343_ _343_/LO _343_/HI VPWR VGND VGND VPWR sky130_fd_sc_hd__conb_1
X_274_ _274_/LO _274_/HI VPWR VGND VGND VPWR sky130_fd_sc_hd__conb_1
Xedgedetect.dly200cell.genblk2\[18\].mux1 VGND VPWR _375_/LO edgedetect.dly200cell.genblk2\[18\].and1/B
+ edgedetect.dly200cell.genblk2\[18\].mux1/A0 edgedetect.dly200cell.genblk2\[19\].and1/B
+ VGND VPWR sky130_fd_sc_hd__mux2_1
Xclkgen.delay_100ns_1.genblk2\[12\].and1 VPWR VGND clkgen.delay_100ns_1.genblk2\[12\].and1/X
+ clkgen.delay_100ns_1.genblk2\[12\].and1/B _209_/HI VGND VPWR sky130_fd_sc_hd__and2_1
Xclkgen.delay_100ns_3.genblk2\[1\].and1 VPWR VGND clkgen.delay_100ns_3.genblk2\[1\].and1/X
+ clkgen.delay_100ns_3.genblk2\[1\].and1/B _257_/HI VGND VPWR sky130_fd_sc_hd__and2_1
X_326_ _326_/LO _326_/HI VPWR VGND VGND VPWR sky130_fd_sc_hd__conb_1
X_257_ _257_/LO _257_/HI VPWR VGND VGND VPWR sky130_fd_sc_hd__conb_1
XFILLER_9_290 VGND VPWR VGND VPWR sky130_fd_sc_hd__decap_4
XFILLER_20_245 VPWR VGND VGND VPWR sky130_fd_sc_hd__decap_3
X_309_ _309_/LO _309_/HI VPWR VGND VGND VPWR sky130_fd_sc_hd__conb_1
Xclkgen.delay_100ns_2.genblk2\[0\].delay_unit VPWR clkgen.delay_100ns_2.genblk2\[0\].and1/X
+ clkgen.delay_100ns_2.genblk2\[0\].mux1/A0 VGND VGND VPWR sky130_mm_sc_hd_dlyPoly5ns
XANTENNA_8 _272_/HI VGND VPWR VPWR VGND sky130_fd_sc_hd__diode_2
XFILLER_20_68 VGND VPWR VGND VPWR sky130_fd_sc_hd__decap_4
XFILLER_20_46 VGND VPWR VGND VPWR sky130_fd_sc_hd__decap_4
XFILLER_13_307 VPWR VGND VGND VPWR sky130_fd_sc_hd__decap_3
XFILLER_8_300 VGND VPWR VGND VPWR sky130_fd_sc_hd__decap_4
XFILLER_11_3 VPWR VGND VGND VPWR sky130_fd_sc_hd__decap_3
Xclkgen.delay_100ns_1.genblk2\[7\].mux1 VGND VPWR _323_/LO clkgen.delay_100ns_1.genblk2\[7\].and1/B
+ clkgen.delay_100ns_1.genblk2\[7\].mux1/A0 clkgen.delay_100ns_1.genblk2\[8\].and1/B
+ VGND VPWR sky130_fd_sc_hd__mux2_1
XFILLER_16_156 VPWR VGND VGND VPWR sky130_fd_sc_hd__decap_3
XFILLER_5_347 VGND VPWR VGND VPWR sky130_fd_sc_hd__decap_4
X_290_ _290_/LO _290_/HI VPWR VGND VGND VPWR sky130_fd_sc_hd__conb_1
XFILLER_5_155 VGND VPWR VGND VPWR sky130_fd_sc_hd__decap_4
X_342_ _342_/LO _342_/HI VPWR VGND VGND VPWR sky130_fd_sc_hd__conb_1
X_273_ _273_/LO _273_/HI VPWR VGND VGND VPWR sky130_fd_sc_hd__conb_1
Xclkgen.delay_100ns_2.genblk2\[5\].delay_unit VPWR clkgen.delay_100ns_2.genblk2\[5\].and1/X
+ clkgen.delay_100ns_2.genblk2\[5\].mux1/A0 VGND VGND VPWR sky130_mm_sc_hd_dlyPoly5ns
XFILLER_17_295 VGND VPWR VGND VPWR sky130_fd_sc_hd__decap_4
XFILLER_17_240 VPWR VGND VGND VPWR sky130_fd_sc_hd__decap_8
Xedgedetect.dly200cell.genblk2\[4\].mux1 VGND VPWR _400_/LO edgedetect.dly200cell.genblk2\[4\].and1/B
+ edgedetect.dly200cell.genblk2\[4\].mux1/A0 edgedetect.dly200cell.genblk2\[5\].and1/B
+ VGND VPWR sky130_fd_sc_hd__mux2_1
XFILLER_2_147 VPWR VGND VGND VPWR sky130_fd_sc_hd__decap_8
Xedgedetect.dly200cell.genblk2\[24\].mux1 VGND VPWR _382_/LO edgedetect.dly200cell.genblk2\[24\].and1/B
+ edgedetect.dly200cell.genblk2\[24\].mux1/A0 edgedetect.dly200cell.genblk2\[25\].and1/B
+ VGND VPWR sky130_fd_sc_hd__mux2_1
XFILLER_14_298 VGND VPWR VGND VPWR sky130_fd_sc_hd__decap_4
Xedgedetect.dly200cell.genblk2\[8\].and1 VPWR VGND edgedetect.dly200cell.genblk2\[8\].and1/X
+ edgedetect.dly200cell.genblk2\[8\].and1/B _304_/HI VGND VPWR sky130_fd_sc_hd__and2_1
X_325_ _325_/LO _325_/HI VPWR VGND VGND VPWR sky130_fd_sc_hd__conb_1
X_256_ _256_/LO _256_/HI VPWR VGND VGND VPWR sky130_fd_sc_hd__conb_1
Xedgedetect.dly200cell.genblk2\[28\].and1 VPWR VGND edgedetect.dly200cell.genblk2\[28\].and1/X
+ edgedetect.dly200cell.genblk2\[28\].and1/B _286_/HI VGND VPWR sky130_fd_sc_hd__and2_1
XFILLER_20_213 VGND VPWR VGND VPWR sky130_fd_sc_hd__decap_4
XFILLER_20_268 VGND VPWR VGND VPWR sky130_fd_sc_hd__decap_4
XFILLER_18_68 VGND VPWR VGND VPWR sky130_fd_sc_hd__decap_4
XFILLER_19_335 VPWR VGND VGND VPWR sky130_fd_sc_hd__decap_6
XFILLER_1_93 VGND VPWR VGND VPWR sky130_fd_sc_hd__decap_4
Xclkgen.delay_100ns_2.genblk2\[13\].and1 VPWR VGND clkgen.delay_100ns_2.genblk2\[13\].and1/X
+ clkgen.delay_100ns_2.genblk2\[13\].and1/B _230_/HI VGND VPWR sky130_fd_sc_hd__and2_1
X_308_ _308_/LO _308_/HI VPWR VGND VGND VPWR sky130_fd_sc_hd__conb_1
X_239_ _239_/LO _239_/HI VPWR VGND VGND VPWR sky130_fd_sc_hd__conb_1
XFILLER_6_16 VGND VPWR VGND VPWR sky130_fd_sc_hd__decap_4
XANTENNA_9 _272_/HI VGND VPWR VPWR VGND sky130_fd_sc_hd__diode_2
Xedgedetect.dly200cell.genblk2\[11\].and1 VPWR VGND edgedetect.dly200cell.genblk2\[11\].and1/X
+ edgedetect.dly200cell.genblk2\[11\].and1/B _268_/HI VGND VPWR sky130_fd_sc_hd__and2_1
XFILLER_20_8 VGND VPWR VGND VPWR sky130_fd_sc_hd__decap_4
Xclkgen.delay_100ns_2.genblk2\[5\].mux1 VGND VPWR _341_/LO clkgen.delay_100ns_2.genblk2\[5\].and1/B
+ clkgen.delay_100ns_2.genblk2\[5\].mux1/A0 clkgen.delay_100ns_2.genblk2\[6\].and1/B
+ VGND VPWR sky130_fd_sc_hd__mux2_1
XFILLER_0_245 VPWR VGND VGND VPWR sky130_fd_sc_hd__decap_3
Xclkgen.delay_100ns_2.genblk2\[9\].and1 VPWR VGND clkgen.delay_100ns_2.genblk2\[9\].and1/X
+ clkgen.delay_100ns_2.genblk2\[9\].and1/B _245_/HI VGND VPWR sky130_fd_sc_hd__and2_1
X_272_ _272_/LO _272_/HI VPWR VGND VGND VPWR sky130_fd_sc_hd__conb_1
X_341_ _341_/LO _341_/HI VPWR VGND VGND VPWR sky130_fd_sc_hd__conb_1
XFILLER_1_340 VGND VPWR VGND VPWR sky130_fd_sc_hd__decap_4
XFILLER_17_274 VGND VPWR VGND VPWR sky130_fd_sc_hd__decap_4
Xclkgen.delay_100ns_1.genblk2\[0\].and1 VPWR VGND clkgen.delay_100ns_1.genblk2\[0\].and1/X
+ inbuf_3/X _206_/HI VGND VPWR sky130_fd_sc_hd__and2_1
X_324_ _324_/LO _324_/HI VPWR VGND VGND VPWR sky130_fd_sc_hd__conb_1
X_255_ _255_/LO _255_/HI VPWR VGND VGND VPWR sky130_fd_sc_hd__conb_1
XFILLER_1_3 VGND VPWR VGND VPWR sky130_fd_sc_hd__decap_4
Xedgedetect.dly200cell.genblk2\[30\].mux1 VGND VPWR _389_/LO edgedetect.dly200cell.genblk2\[30\].and1/B
+ edgedetect.dly200cell.genblk2\[30\].mux1/A0 edgedetect.dly200cell.genblk2\[31\].and1/B
+ VGND VPWR sky130_fd_sc_hd__mux2_1
XFILLER_19_303 VPWR VGND VGND VPWR sky130_fd_sc_hd__decap_6
XFILLER_18_47 VGND VPWR VGND VPWR sky130_fd_sc_hd__decap_4
Xedgedetect.dly200cell.genblk2\[34\].and1 VPWR VGND edgedetect.dly200cell.genblk2\[34\].and1/X
+ edgedetect.dly200cell.genblk2\[34\].and1/B _293_/HI VGND VPWR sky130_fd_sc_hd__and2_1
XFILLER_10_280 VPWR VGND VGND VPWR sky130_fd_sc_hd__decap_6
X_238_ _238_/LO _238_/HI VPWR VGND VGND VPWR sky130_fd_sc_hd__conb_1
X_307_ _307_/LO _307_/HI VPWR VGND VGND VPWR sky130_fd_sc_hd__conb_1
Xclkgen.delay_100ns_1.genblk2\[14\].delay_unit VPWR clkgen.delay_100ns_1.genblk2\[14\].and1/X
+ clkgen.delay_100ns_1.genblk2\[14\].mux1/A0 VGND VGND VPWR sky130_mm_sc_hd_dlyPoly5ns
Xclkgen.delay_100ns_3.genblk2\[12\].delay_unit VPWR clkgen.delay_100ns_3.genblk2\[12\].and1/X
+ clkgen.delay_100ns_3.genblk2\[12\].mux1/A0 VGND VGND VPWR sky130_mm_sc_hd_dlyPoly5ns
XFILLER_16_306 VPWR VGND VGND VPWR sky130_fd_sc_hd__decap_6
XFILLER_20_37 VPWR VGND VGND VPWR sky130_fd_sc_hd__decap_6
XFILLER_20_15 VGND VPWR VGND VPWR sky130_fd_sc_hd__decap_4
Xclkgen.delay_100ns_3.genblk2\[3\].mux1 VGND VPWR _359_/LO clkgen.delay_100ns_3.genblk2\[3\].and1/B
+ clkgen.delay_100ns_3.genblk2\[3\].mux1/A0 clkgen.delay_100ns_3.genblk2\[4\].and1/B
+ VGND VPWR sky130_fd_sc_hd__mux2_1
XFILLER_3_276 VGND VPWR VGND VPWR sky130_fd_sc_hd__decap_4
Xclkgen.delay_100ns_1.genblk2\[14\].mux1 VGND VPWR _311_/LO clkgen.delay_100ns_1.genblk2\[14\].and1/B
+ clkgen.delay_100ns_1.genblk2\[14\].mux1/A0 clkgen.delay_100ns_1.genblk2\[15\].and1/B
+ VGND VPWR sky130_fd_sc_hd__mux2_1
XFILLER_19_199 VGND VPWR VGND VPWR sky130_fd_sc_hd__decap_4
XFILLER_19_166 VGND VPWR VGND VPWR sky130_fd_sc_hd__decap_4
XFILLER_19_144 VPWR VGND VGND VPWR sky130_fd_sc_hd__decap_8
XFILLER_19_100 VGND VPWR VGND VPWR sky130_fd_sc_hd__decap_4
XFILLER_19_90 VPWR VGND VGND VPWR sky130_fd_sc_hd__decap_6
Xclkgen.delay_100ns_3.genblk2\[7\].and1 VPWR VGND clkgen.delay_100ns_3.genblk2\[7\].and1/X
+ clkgen.delay_100ns_3.genblk2\[7\].and1/B _263_/HI VGND VPWR sky130_fd_sc_hd__and2_1
Xclkgen.delay_100ns_1.genblk2\[18\].and1 VPWR VGND clkgen.delay_100ns_1.genblk2\[18\].and1/X
+ clkgen.delay_100ns_1.genblk2\[18\].and1/B _215_/HI VGND VPWR sky130_fd_sc_hd__and2_1
Xclkgen.delay_100ns_3.genblk2\[10\].mux1 VGND VPWR _347_/LO clkgen.delay_100ns_3.genblk2\[9\].mux1/X
+ clkgen.delay_100ns_3.genblk2\[10\].mux1/A0 clkgen.delay_100ns_3.genblk2\[11\].and1/B
+ VGND VPWR sky130_fd_sc_hd__mux2_1
XFILLER_12_331 VGND VPWR VGND VPWR sky130_fd_sc_hd__decap_4
XPHY_0 VPWR VGND VGND VPWR sky130_fd_sc_hd__decap_3
Xclkgen.delay_100ns_3.genblk2\[14\].and1 VPWR VGND clkgen.delay_100ns_3.genblk2\[14\].and1/X
+ clkgen.delay_100ns_3.genblk2\[14\].and1/B _251_/HI VGND VPWR sky130_fd_sc_hd__and2_1
XFILLER_13_106 VGND VPWR VGND VPWR sky130_fd_sc_hd__decap_4
XFILLER_12_194 VGND VPWR VGND VPWR sky130_fd_sc_hd__decap_4
XFILLER_2_308 VGND VPWR VGND VPWR sky130_fd_sc_hd__decap_4
XFILLER_12_16 VGND VPWR VGND VPWR sky130_fd_sc_hd__decap_4
X_271_ _271_/LO _271_/HI VPWR VGND VGND VPWR sky130_fd_sc_hd__conb_1
X_340_ _340_/LO _340_/HI VPWR VGND VGND VPWR sky130_fd_sc_hd__conb_1
XFILLER_4_94 VPWR VGND VGND VPWR sky130_fd_sc_hd__decap_3
Xclkgen.delay_100ns_1.genblk2\[19\].delay_unit VPWR clkgen.delay_100ns_1.genblk2\[19\].and1/X
+ clkgen.delay_100ns_1.genblk2\[19\].mux1/A0 VGND VGND VPWR sky130_mm_sc_hd_dlyPoly5ns
Xclkgen.delay_100ns_3.genblk2\[17\].delay_unit VPWR clkgen.delay_100ns_3.genblk2\[17\].and1/X
+ clkgen.delay_100ns_3.genblk2\[17\].mux1/A0 VGND VGND VPWR sky130_mm_sc_hd_dlyPoly5ns
Xclkgen.delay_100ns_1.genblk2\[4\].delay_unit VPWR clkgen.delay_100ns_1.genblk2\[4\].and1/X
+ clkgen.delay_100ns_1.genblk2\[4\].mux1/A0 VGND VGND VPWR sky130_mm_sc_hd_dlyPoly5ns
XFILLER_2_105 VGND VPWR VGND VPWR sky130_fd_sc_hd__decap_4
XFILLER_14_245 VGND VPWR VGND VPWR sky130_fd_sc_hd__decap_4
X_254_ _254_/LO _254_/HI VPWR VGND VGND VPWR sky130_fd_sc_hd__conb_1
X_323_ _323_/LO _323_/HI VPWR VGND VGND VPWR sky130_fd_sc_hd__conb_1
XFILLER_20_226 VPWR VGND VGND VPWR sky130_fd_sc_hd__decap_8
XFILLER_6_263 VGND VPWR VGND VPWR sky130_fd_sc_hd__decap_4
X_237_ _237_/LO _237_/HI VPWR VGND VGND VPWR sky130_fd_sc_hd__conb_1
X_306_ _306_/LO _306_/HI VPWR VGND VGND VPWR sky130_fd_sc_hd__conb_1
XFILLER_19_156 VPWR VGND VGND VPWR sky130_fd_sc_hd__decap_6
XFILLER_0_214 VPWR VGND VGND VPWR sky130_fd_sc_hd__decap_3
XFILLER_8_336 VGND VPWR VGND VPWR sky130_fd_sc_hd__decap_4
XPHY_1 VPWR VGND VGND VPWR sky130_fd_sc_hd__decap_3
Xclkgen.delay_100ns_1.genblk2\[9\].delay_unit VPWR clkgen.delay_100ns_1.genblk2\[9\].and1/X
+ clkgen.delay_100ns_1.genblk2\[9\].mux1/A0 VGND VGND VPWR sky130_mm_sc_hd_dlyPoly5ns
XFILLER_15_170 VGND VPWR VGND VPWR sky130_fd_sc_hd__decap_4
XFILLER_15_192 VPWR VGND VGND VPWR sky130_fd_sc_hd__decap_8
Xclkgen.delay_100ns_2.genblk2\[15\].mux1 VGND VPWR _332_/LO clkgen.delay_100ns_2.genblk2\[15\].and1/B
+ clkgen.delay_100ns_2.genblk2\[15\].mux1/A0 clkgen.delay_100ns_2.genblk2\[16\].and1/B
+ VGND VPWR sky130_fd_sc_hd__mux2_1
XFILLER_12_162 VGND VPWR VGND VPWR sky130_fd_sc_hd__decap_4
Xinbuf_1 VGND VPWR _204_/B1 ena_in VGND VPWR sky130_fd_sc_hd__buf_1
Xclkgen.delay_100ns_2.genblk2\[19\].and1 VPWR VGND clkgen.delay_100ns_2.genblk2\[19\].and1/X
+ clkgen.delay_100ns_2.genblk2\[19\].and1/B _236_/HI VGND VPWR sky130_fd_sc_hd__and2_1
Xedgedetect.dly200cell.genblk2\[13\].mux1 VGND VPWR _370_/LO edgedetect.dly200cell.genblk2\[13\].and1/B
+ edgedetect.dly200cell.genblk2\[13\].mux1/A0 edgedetect.dly200cell.genblk2\[14\].and1/B
+ VGND VPWR sky130_fd_sc_hd__mux2_1
Xedgedetect.dly200cell.genblk2\[13\].delay_unit VPWR edgedetect.dly200cell.genblk2\[13\].and1/X
+ edgedetect.dly200cell.genblk2\[13\].mux1/A0 VGND VGND VPWR sky130_mm_sc_hd_dlyPoly5ns
XFILLER_5_103 VPWR VGND VGND VPWR sky130_fd_sc_hd__decap_8
XFILLER_5_125 VGND VPWR VGND VPWR sky130_fd_sc_hd__decap_4
X_270_ _270_/LO _270_/HI VPWR VGND VGND VPWR sky130_fd_sc_hd__conb_1
Xedgedetect.dly200cell.genblk2\[17\].and1 VPWR VGND edgedetect.dly200cell.genblk2\[17\].and1/X
+ edgedetect.dly200cell.genblk2\[17\].and1/B _274_/HI VGND VPWR sky130_fd_sc_hd__and2_1