* NGSPICE file created from adc_clkgen_with_edgedetect.ext - technology: sky130A

.subckt sky130_fd_sc_hd__decap_4 VGND VPWR VNB VPB
X0 VPWR VGND VPWR VPB sky130_fd_pr__pfet_01v8_hvt ad=4.524e+11p pd=4.52e+06u as=0p ps=0u w=870000u l=1.05e+06u
X1 VGND VPWR VGND VNB sky130_fd_pr__nfet_01v8 ad=2.86e+11p pd=3.24e+06u as=0p ps=0u w=550000u l=1.05e+06u
.ends

.subckt sky130_fd_sc_hd__decap_6 VPWR VGND VNB VPB
X0 VPWR VGND VPWR VPB sky130_fd_pr__pfet_01v8_hvt ad=4.524e+11p pd=4.52e+06u as=0p ps=0u w=870000u l=1.97e+06u
X1 VGND VPWR VGND VNB sky130_fd_pr__nfet_01v8 ad=2.86e+11p pd=3.24e+06u as=0p ps=0u w=550000u l=1.97e+06u
.ends

.subckt sky130_fd_sc_hd__mux2_1 VGND VPWR S A1 A0 X VNB VPB
X0 VPWR a_505_21# a_535_374# VPB sky130_fd_pr__pfet_01v8_hvt ad=4.553e+11p pd=4.29e+06u as=8.82e+10p ps=1.26e+06u w=420000u l=150000u
X1 a_505_21# S VPWR VPB sky130_fd_pr__pfet_01v8_hvt ad=1.176e+11p pd=1.4e+06u as=0p ps=0u w=420000u l=150000u
X2 a_218_374# S VPWR VPB sky130_fd_pr__pfet_01v8_hvt ad=1.533e+11p pd=1.57e+06u as=0p ps=0u w=420000u l=150000u
X3 VGND a_505_21# a_439_47# VNB sky130_fd_pr__nfet_01v8 ad=5.155e+11p pd=4.31e+06u as=1.386e+11p ps=1.5e+06u w=420000u l=150000u
X4 a_76_199# A0 a_218_374# VPB sky130_fd_pr__pfet_01v8_hvt ad=3.864e+11p pd=2.68e+06u as=0p ps=0u w=420000u l=150000u
X5 a_505_21# S VGND VNB sky130_fd_pr__nfet_01v8 ad=1.092e+11p pd=1.36e+06u as=0p ps=0u w=420000u l=150000u
X6 a_439_47# A0 a_76_199# VNB sky130_fd_pr__nfet_01v8 ad=0p pd=0u as=1.995e+11p ps=1.79e+06u w=420000u l=150000u
X7 a_535_374# A1 a_76_199# VPB sky130_fd_pr__pfet_01v8_hvt ad=0p pd=0u as=0p ps=0u w=420000u l=150000u
X8 a_76_199# A1 a_218_47# VNB sky130_fd_pr__nfet_01v8 ad=0p pd=0u as=1.386e+11p ps=1.5e+06u w=420000u l=150000u
X9 a_218_47# S VGND VNB sky130_fd_pr__nfet_01v8 ad=0p pd=0u as=0p ps=0u w=420000u l=150000u
X10 VPWR a_76_199# X VPB sky130_fd_pr__pfet_01v8_hvt ad=0p pd=0u as=2.6e+11p ps=2.52e+06u w=1e+06u l=150000u
X11 VGND a_76_199# X VNB sky130_fd_pr__nfet_01v8 ad=0p pd=0u as=1.69e+11p ps=1.82e+06u w=650000u l=150000u
.ends

.subckt sky130_fd_sc_hd__or2_1 A X B VGND VPWR VNB VPB
X0 VGND A a_68_297# VNB sky130_fd_pr__nfet_01v8 ad=3.097e+11p pd=3.33e+06u as=1.134e+11p ps=1.38e+06u w=420000u l=150000u
X1 a_68_297# B VGND VNB sky130_fd_pr__nfet_01v8 ad=0p pd=0u as=0p ps=0u w=420000u l=150000u
X2 X a_68_297# VGND VNB sky130_fd_pr__nfet_01v8 ad=1.69e+11p pd=1.82e+06u as=0p ps=0u w=650000u l=150000u
X3 VPWR A a_150_297# VPB sky130_fd_pr__pfet_01v8_hvt ad=2.915e+11p pd=2.67e+06u as=8.82e+10p ps=1.26e+06u w=420000u l=150000u
X4 X a_68_297# VPWR VPB sky130_fd_pr__pfet_01v8_hvt ad=3.4e+11p pd=2.68e+06u as=0p ps=0u w=1e+06u l=150000u
X5 a_150_297# B a_68_297# VPB sky130_fd_pr__pfet_01v8_hvt ad=0p pd=0u as=1.092e+11p ps=1.36e+06u w=420000u l=150000u
.ends

.subckt sky130_fd_sc_hd__decap_3 VPWR VGND VNB VPB
X0 VPWR VGND VPWR VPB sky130_fd_pr__pfet_01v8_hvt ad=4.524e+11p pd=4.52e+06u as=0p ps=0u w=870000u l=590000u
X1 VGND VPWR VGND VNB sky130_fd_pr__nfet_01v8 ad=2.86e+11p pd=3.24e+06u as=0p ps=0u w=550000u l=590000u
.ends

.subckt sky130_mm_sc_hd_dlyPoly5ns VPWR in out VGND VNB VPB
X0 a_851_95# in VGND VNB sky130_fd_pr__nfet_01v8 ad=1.218e+11p pd=1.42e+06u as=1.0453e+12p ps=9.52e+06u w=420000u l=3.83e+06u
X1 a_1724_71# a_851_95# VGND VNB sky130_fd_pr__nfet_01v8 ad=3.99e+11p pd=4.42e+06u as=0p ps=0u w=420000u l=150000u
X2 VPWR out a_1724_71# VNB sky130_fd_pr__nfet_01v8 ad=1.386e+11p pd=1.5e+06u as=0p ps=0u w=420000u l=150000u
X3 VGND out a_1783_329# VPB sky130_fd_pr__pfet_01v8 ad=2.64e+11p pd=2.26e+06u as=7.52e+11p ps=6.68e+06u w=800000u l=150000u
X4 a_1783_329# out VGND VPB sky130_fd_pr__pfet_01v8 ad=0p pd=0u as=0p ps=0u w=800000u l=150000u
X5 a_1724_71# out VPWR VNB sky130_fd_pr__nfet_01v8 ad=0p pd=0u as=0p ps=0u w=420000u l=150000u
X6 VGND a_851_95# VGND VNB sky130_fd_pr__nfet_01v8 ad=0p pd=0u as=0p ps=0u w=1.375e+06u l=2.25e+06u
X7 a_1783_329# a_851_95# VPWR VPB sky130_fd_pr__pfet_01v8 ad=0p pd=0u as=4.72e+11p ps=4.38e+06u w=800000u l=150000u
X8 out a_851_95# a_1783_329# VPB sky130_fd_pr__pfet_01v8 ad=2.4e+11p pd=2.2e+06u as=0p ps=0u w=800000u l=150000u
X9 a_851_95# in VPWR VPB sky130_fd_pr__pfet_01v8_lvt ad=2.32e+11p pd=2.18e+06u as=0p ps=0u w=800000u l=3.83e+06u
X10 out a_851_95# a_1724_71# VNB sky130_fd_pr__nfet_01v8 ad=1.218e+11p pd=1.42e+06u as=0p ps=0u w=420000u l=150000u
C0 VGND a_851_95# 1.77fF
C1 VGND VNB 1.45fF
C2 VPWR VNB 1.20fF
C3 in VNB 1.50fF
C4 VPB VNB 2.04fF
.ends

.subckt sky130_fd_sc_hd__and2_1 VPWR VGND X B A VNB VPB
X0 VPWR B a_59_75# VPB sky130_fd_pr__pfet_01v8_hvt ad=4.507e+11p pd=4.18e+06u as=1.134e+11p ps=1.38e+06u w=420000u l=150000u
X1 X a_59_75# VPWR VPB sky130_fd_pr__pfet_01v8_hvt ad=4.75e+11p pd=2.95e+06u as=0p ps=0u w=1e+06u l=150000u
X2 VGND B a_145_75# VNB sky130_fd_pr__nfet_01v8 ad=2.236e+11p pd=2.08e+06u as=1.134e+11p ps=1.38e+06u w=420000u l=150000u
X3 a_59_75# A VPWR VPB sky130_fd_pr__pfet_01v8_hvt ad=0p pd=0u as=0p ps=0u w=420000u l=150000u
X4 X a_59_75# VGND VNB sky130_fd_pr__nfet_01v8 ad=1.82e+11p pd=1.86e+06u as=0p ps=0u w=650000u l=150000u
X5 a_145_75# A a_59_75# VNB sky130_fd_pr__nfet_01v8 ad=0p pd=0u as=1.176e+11p ps=1.4e+06u w=420000u l=150000u
.ends

.subckt sky130_ef_sc_hd__decap_12 VGND VPWR VNB VPB
X0 VPWR VGND VPWR VPB sky130_fd_pr__pfet_01v8_hvt ad=4.524e+11p pd=4.52e+06u as=0p ps=0u w=870000u l=4.73e+06u
X1 VGND VPWR VGND VNB sky130_fd_pr__nfet_01v8 ad=2.86e+11p pd=3.24e+06u as=0p ps=0u w=550000u l=4.73e+06u
C0 VGND VPWR 1.27fF
C1 VPWR VNB 1.62fF
C2 VGND VNB 1.45fF
C3 VPB VNB 1.14fF
.ends

.subckt sky130_fd_sc_hd__diode_2 DIODE VGND VPWR VPB VNB
D0 VNB DIODE sky130_fd_pr__diode_pw2nd_05v5 pj=2.64e+06u area=4.347e+11p
.ends

.subckt sky130_fd_sc_hd__decap_8 VPWR VGND VNB VPB
X0 VPWR VGND VPWR VPB sky130_fd_pr__pfet_01v8_hvt ad=4.524e+11p pd=4.52e+06u as=0p ps=0u w=870000u l=2.89e+06u
X1 VGND VPWR VGND VNB sky130_fd_pr__nfet_01v8 ad=2.86e+11p pd=3.24e+06u as=0p ps=0u w=550000u l=2.89e+06u
C0 VGND VPWR 1.26fF
C1 VPWR VNB 1.11fF
.ends

.subckt sky130_fd_sc_hd__nor2b_1 B_N Y A VGND VPWR VNB VPB
X0 Y a_74_47# a_265_297# VPB sky130_fd_pr__pfet_01v8_hvt ad=2.6e+11p pd=2.52e+06u as=2.1e+11p ps=2.42e+06u w=1e+06u l=150000u
X1 VPWR B_N a_74_47# VPB sky130_fd_pr__pfet_01v8_hvt ad=3.146e+11p pd=2.78e+06u as=1.092e+11p ps=1.36e+06u w=420000u l=150000u
X2 a_265_297# A VPWR VPB sky130_fd_pr__pfet_01v8_hvt ad=0p pd=0u as=0p ps=0u w=1e+06u l=150000u
X3 Y A VGND VNB sky130_fd_pr__nfet_01v8 ad=1.755e+11p pd=1.84e+06u as=3.695e+11p ps=3.79e+06u w=650000u l=150000u
X4 VGND B_N a_74_47# VNB sky130_fd_pr__nfet_01v8 ad=0p pd=0u as=1.092e+11p ps=1.36e+06u w=420000u l=150000u
X5 VGND a_74_47# Y VNB sky130_fd_pr__nfet_01v8 ad=0p pd=0u as=0p ps=0u w=650000u l=150000u
.ends

.subckt sky130_fd_sc_hd__inv_2 A Y VPWR VGND VNB VPB
X0 Y A VPWR VPB sky130_fd_pr__pfet_01v8_hvt ad=2.7e+11p pd=2.54e+06u as=5.2e+11p ps=5.04e+06u w=1e+06u l=150000u
X1 VGND A Y VNB sky130_fd_pr__nfet_01v8 ad=3.38e+11p pd=3.64e+06u as=1.755e+11p ps=1.84e+06u w=650000u l=150000u
X2 Y A VGND VNB sky130_fd_pr__nfet_01v8 ad=0p pd=0u as=0p ps=0u w=650000u l=150000u
X3 VPWR A Y VPB sky130_fd_pr__pfet_01v8_hvt ad=0p pd=0u as=0p ps=0u w=1e+06u l=150000u
.ends

.subckt sky130_fd_sc_hd__and2b_1 X A_N B VGND VPWR VNB VPB
X0 VPWR B a_207_413# VPB sky130_fd_pr__pfet_01v8_hvt ad=5.986e+11p pd=5e+06u as=1.218e+11p ps=1.42e+06u w=420000u l=150000u
X1 X a_207_413# VPWR VPB sky130_fd_pr__pfet_01v8_hvt ad=2.6e+11p pd=2.52e+06u as=0p ps=0u w=1e+06u l=150000u
X2 a_297_47# a_27_413# a_207_413# VNB sky130_fd_pr__nfet_01v8 ad=1.008e+11p pd=1.32e+06u as=1.092e+11p ps=1.36e+06u w=420000u l=150000u
X3 X a_207_413# VGND VNB sky130_fd_pr__nfet_01v8 ad=1.69e+11p pd=1.82e+06u as=3.118e+11p ps=3.34e+06u w=650000u l=150000u
X4 a_207_413# a_27_413# VPWR VPB sky130_fd_pr__pfet_01v8_hvt ad=0p pd=0u as=0p ps=0u w=420000u l=150000u
X5 VPWR A_N a_27_413# VPB sky130_fd_pr__pfet_01v8_hvt ad=0p pd=0u as=1.092e+11p ps=1.36e+06u w=420000u l=150000u
X6 VGND B a_297_47# VNB sky130_fd_pr__nfet_01v8 ad=0p pd=0u as=0p ps=0u w=420000u l=150000u
X7 a_27_413# A_N VGND VNB sky130_fd_pr__nfet_01v8 ad=1.092e+11p pd=1.36e+06u as=0p ps=0u w=420000u l=150000u
.ends

.subckt sky130_fd_sc_hd__buf_1 VGND VPWR X A VNB VPB
X0 VPWR A a_27_47# VPB sky130_fd_pr__pfet_01v8_hvt ad=2.291e+11p pd=2.16e+06u as=2.054e+11p ps=2.1e+06u w=790000u l=150000u
X1 X a_27_47# VGND VNB sky130_fd_pr__nfet_01v8 ad=1.352e+11p pd=1.56e+06u as=1.508e+11p ps=1.62e+06u w=520000u l=150000u
X2 X a_27_47# VPWR VPB sky130_fd_pr__pfet_01v8_hvt ad=2.054e+11p pd=2.1e+06u as=0p ps=0u w=790000u l=150000u
X3 VGND A a_27_47# VNB sky130_fd_pr__nfet_01v8 ad=0p pd=0u as=1.352e+11p ps=1.56e+06u w=520000u l=150000u
.ends

.subckt sky130_fd_sc_hd__buf_4 VPWR VGND X A VNB VPB
X0 VPWR a_27_47# X VPB sky130_fd_pr__pfet_01v8_hvt ad=8e+11p pd=7.6e+06u as=5.4e+11p ps=5.08e+06u w=1e+06u l=150000u
X1 X a_27_47# VPWR VPB sky130_fd_pr__pfet_01v8_hvt ad=0p pd=0u as=0p ps=0u w=1e+06u l=150000u
X2 VPWR a_27_47# X VPB sky130_fd_pr__pfet_01v8_hvt ad=0p pd=0u as=0p ps=0u w=1e+06u l=150000u
X3 X a_27_47# VPWR VPB sky130_fd_pr__pfet_01v8_hvt ad=0p pd=0u as=0p ps=0u w=1e+06u l=150000u
X4 X a_27_47# VGND VNB sky130_fd_pr__nfet_01v8 ad=3.51e+11p pd=3.68e+06u as=5.2e+11p ps=5.5e+06u w=650000u l=150000u
X5 X a_27_47# VGND VNB sky130_fd_pr__nfet_01v8 ad=0p pd=0u as=0p ps=0u w=650000u l=150000u
X6 VGND a_27_47# X VNB sky130_fd_pr__nfet_01v8 ad=0p pd=0u as=0p ps=0u w=650000u l=150000u
X7 VGND a_27_47# X VNB sky130_fd_pr__nfet_01v8 ad=0p pd=0u as=0p ps=0u w=650000u l=150000u
X8 VPWR A a_27_47# VPB sky130_fd_pr__pfet_01v8_hvt ad=0p pd=0u as=2.6e+11p ps=2.52e+06u w=1e+06u l=150000u
X9 VGND A a_27_47# VNB sky130_fd_pr__nfet_01v8 ad=0p pd=0u as=1.69e+11p ps=1.82e+06u w=650000u l=150000u
.ends

.subckt adc_clkgen_with_edgedetect VGND VPWR clk_comp_out clk_dig_out dlycontrol1_in[0]
+ dlycontrol1_in[1] dlycontrol1_in[2] dlycontrol1_in[3] dlycontrol1_in[4] dlycontrol2_in[0]
+ dlycontrol2_in[1] dlycontrol2_in[2] dlycontrol2_in[3] dlycontrol2_in[4] dlycontrol3_in[0]
+ dlycontrol3_in[1] dlycontrol3_in[2] dlycontrol3_in[3] dlycontrol3_in[4] dlycontrol4_in[0]
+ dlycontrol4_in[1] dlycontrol4_in[2] dlycontrol4_in[3] dlycontrol4_in[4] dlycontrol4_in[5]
+ ena_in enable_dlycontrol_in ndecision_finish_in nsample_n_in nsample_n_out nsample_p_in
+ nsample_p_out sample_n_in sample_n_out sample_p_in sample_p_out start_conv_in
XFILLER_13_177 VGND VPWR VGND VPWR sky130_fd_sc_hd__decap_4
XFILLER_3_12 VGND VPWR VGND VPWR sky130_fd_sc_hd__decap_4
XFILLER_12_87 VPWR VGND VGND VPWR sky130_fd_sc_hd__decap_6
Xclkgen.delay_155ns_2.genblk1\[0\].dly_binary.out_mux VGND VPWR clkgen.delay_155ns_2.genblk1\[0\].bypass_enable/X
+ outbuf_1/A clkgen.delay_155ns_2.genblk1\[0\].dly_binary.out_mux/A0 clkgen.delay_155ns_2.genblk1\[0\].dly_binary.out_mux/X
+ VGND VPWR sky130_fd_sc_hd__mux2_1
Xclkgen.delay_155ns_2.genblk1\[2\].dly_binary.out_mux VGND VPWR clkgen.delay_155ns_2.genblk1\[2\].bypass_enable/X
+ clkgen.delay_155ns_2.genblk1\[1\].dly_binary.out_mux/X clkgen.delay_155ns_2.genblk1\[2\].dly_binary.out_mux/A0
+ clkgen.delay_155ns_2.genblk1\[2\].dly_binary.out_mux/X VGND VPWR sky130_fd_sc_hd__mux2_1
XFILLER_15_228 VGND VPWR VGND VPWR sky130_fd_sc_hd__decap_4
Xclkgen.delay_155ns_2.genblk1\[4\].dly_binary.out_mux VGND VPWR clkgen.delay_155ns_2.genblk1\[4\].bypass_enable/X
+ clkgen.delay_155ns_2.genblk1\[3\].dly_binary.out_mux/X clkgen.delay_155ns_2.genblk1\[4\].dly_binary.out_mux/A0
+ clkgen.nor1/A VGND VPWR sky130_fd_sc_hd__mux2_1
XFILLER_2_143 VGND VPWR VGND VPWR sky130_fd_sc_hd__decap_4
Xedgedetect.or1 edgedetect.or1/A clkgen.nor1/B_N inbuf_1/X VGND VPWR VGND VPWR sky130_fd_sc_hd__or2_1
XFILLER_11_253 VGND VPWR VGND VPWR sky130_fd_sc_hd__decap_4
XFILLER_20_32 VPWR VGND VGND VPWR sky130_fd_sc_hd__decap_3
Xclkgen.delay_155ns_3.genblk1\[0\].dly_binary.genblk1\[0\].delay_unit VPWR clkgen.delay_155ns_3.genblk1\[0\].dly_binary.and_bypass_switch/X
+ clkgen.delay_155ns_3.genblk1\[0\].dly_binary.out_mux/A0 VGND VGND VPWR sky130_mm_sc_hd_dlyPoly5ns
Xedgedetect.dly_315ns_1.genblk1\[1\].bypass_enable VPWR VGND edgedetect.dly_315ns_1.genblk1\[1\].bypass_enable/X
+ dlycontrol4_in[1] edgedetect.dly_315ns_1.enablebuffer/X VGND VPWR sky130_fd_sc_hd__and2_1
XFILLER_13_3 VPWR VGND VGND VPWR sky130_fd_sc_hd__decap_6
Xclkgen.delay_155ns_1.genblk1\[4\].dly_binary.genblk1\[14\].delay_unit VPWR clkgen.delay_155ns_1.genblk1\[4\].dly_binary.genblk1\[14\].delay_unit/in
+ clkgen.delay_155ns_1.genblk1\[4\].dly_binary.genblk1\[15\].delay_unit/in VGND VGND
+ VPWR sky130_mm_sc_hd_dlyPoly5ns
XFILLER_10_307 VGND VPWR VGND VPWR sky130_ef_sc_hd__decap_12
XANTENNA_clkgen.delay_155ns_2.genblk1\[1\].dly_binary.and_bypass_switch_A_N clkgen.delay_155ns_2.genblk1\[1\].bypass_enable/X
+ VGND VPWR VPWR VGND sky130_fd_sc_hd__diode_2
XFILLER_5_311 VPWR VGND VGND VPWR sky130_fd_sc_hd__decap_8
Xclkgen.delay_155ns_1.genblk1\[2\].bypass_enable VPWR VGND clkgen.delay_155ns_1.genblk1\[2\].bypass_enable/X
+ dlycontrol1_in[2] clkgen.delay_155ns_1.enablebuffer/X VGND VPWR sky130_fd_sc_hd__and2_1
Xclkgen.delay_155ns_2.genblk1\[3\].bypass_enable VPWR VGND clkgen.delay_155ns_2.genblk1\[3\].bypass_enable/X
+ dlycontrol2_in[3] clkgen.delay_155ns_2.enablebuffer/X VGND VPWR sky130_fd_sc_hd__and2_1
Xclkgen.delay_155ns_3.genblk1\[4\].bypass_enable VPWR VGND clkgen.delay_155ns_3.genblk1\[4\].bypass_enable/X
+ dlycontrol3_in[4] clkgen.delay_155ns_3.enablebuffer/X VGND VPWR sky130_fd_sc_hd__and2_1
Xedgedetect.dly_315ns_1.genblk1\[5\].dly_binary.genblk1\[3\].delay_unit VPWR edgedetect.dly_315ns_1.genblk1\[5\].dly_binary.genblk1\[3\].delay_unit/in
+ edgedetect.dly_315ns_1.genblk1\[5\].dly_binary.genblk1\[4\].delay_unit/in VGND VGND
+ VPWR sky130_mm_sc_hd_dlyPoly5ns
XANTENNA_clkgen.delay_155ns_3.genblk1\[4\].bypass_enable_A clkgen.delay_155ns_3.enablebuffer/X
+ VGND VPWR VPWR VGND sky130_fd_sc_hd__diode_2
XFILLER_2_199 VGND VPWR VGND VPWR sky130_fd_sc_hd__decap_4
XFILLER_20_276 VPWR VGND VGND VPWR sky130_fd_sc_hd__decap_3
XFILLER_18_32 VGND VPWR VGND VPWR sky130_fd_sc_hd__decap_4
XFILLER_7_214 VGND VPWR VGND VPWR sky130_fd_sc_hd__decap_4
Xclkgen.delay_155ns_3.genblk1\[4\].dly_binary.genblk1\[1\].delay_unit VPWR clkgen.delay_155ns_3.genblk1\[4\].dly_binary.genblk1\[1\].delay_unit/in
+ clkgen.delay_155ns_3.genblk1\[4\].dly_binary.genblk1\[2\].delay_unit/in VGND VGND
+ VPWR sky130_mm_sc_hd_dlyPoly5ns
XFILLER_6_280 VPWR VGND VGND VPWR sky130_fd_sc_hd__decap_8
XFILLER_4_228 VGND VPWR VGND VPWR sky130_fd_sc_hd__decap_4
XFILLER_16_313 VPWR VGND VGND VPWR sky130_fd_sc_hd__decap_6
XFILLER_3_261 VGND VPWR VGND VPWR sky130_ef_sc_hd__decap_12
XFILLER_0_253 VGND VPWR VGND VPWR sky130_ef_sc_hd__decap_12
Xedgedetect.dly_315ns_1.genblk1\[5\].dly_binary.genblk1\[8\].delay_unit VPWR edgedetect.dly_315ns_1.genblk1\[5\].dly_binary.genblk1\[8\].delay_unit/in
+ edgedetect.dly_315ns_1.genblk1\[5\].dly_binary.genblk1\[9\].delay_unit/in VGND VGND
+ VPWR sky130_mm_sc_hd_dlyPoly5ns
XFILLER_13_146 VPWR VGND VGND VPWR sky130_fd_sc_hd__decap_6
XANTENNA_outbuf_6_A nsample_n_in VGND VPWR VPWR VGND sky130_fd_sc_hd__diode_2
XFILLER_3_47 VGND VPWR VGND VPWR sky130_fd_sc_hd__decap_4
XFILLER_2_304 VGND VPWR VGND VPWR sky130_ef_sc_hd__decap_12
Xclkgen.delay_155ns_2.genblk1\[4\].dly_binary.genblk1\[12\].delay_unit VPWR clkgen.delay_155ns_2.genblk1\[4\].dly_binary.genblk1\[12\].delay_unit/in
+ clkgen.delay_155ns_2.genblk1\[4\].dly_binary.genblk1\[13\].delay_unit/in VGND VGND
+ VPWR sky130_mm_sc_hd_dlyPoly5ns
XFILLER_5_131 VGND VPWR VGND VPWR sky130_fd_sc_hd__decap_4
Xclkgen.delay_155ns_3.genblk1\[4\].dly_binary.genblk1\[6\].delay_unit VPWR clkgen.delay_155ns_3.genblk1\[4\].dly_binary.genblk1\[6\].delay_unit/in
+ clkgen.delay_155ns_3.genblk1\[4\].dly_binary.genblk1\[7\].delay_unit/in VGND VGND
+ VPWR sky130_mm_sc_hd_dlyPoly5ns
XANTENNA_clkgen.delay_155ns_2.genblk1\[2\].bypass_enable_A clkgen.delay_155ns_2.enablebuffer/X
+ VGND VPWR VPWR VGND sky130_fd_sc_hd__diode_2
XANTENNA_clkgen.delay_155ns_3.genblk1\[4\].bypass_enable_B dlycontrol3_in[4] VGND
+ VPWR VPWR VGND sky130_fd_sc_hd__diode_2
XFILLER_0_15 VGND VPWR VGND VPWR sky130_fd_sc_hd__decap_4
XFILLER_3_3 VPWR VGND VGND VPWR sky130_fd_sc_hd__decap_3
Xedgedetect.nor1 inbuf_2/X edgedetect.or1/A edgedetect.nor1/A VGND VPWR VGND VPWR
+ sky130_fd_sc_hd__nor2b_1
Xclkgen.delay_155ns_2.genblk1\[4\].dly_binary.genblk1\[0\].delay_unit VPWR clkgen.delay_155ns_2.genblk1\[4\].dly_binary.and_bypass_switch/X
+ clkgen.delay_155ns_2.genblk1\[4\].dly_binary.genblk1\[1\].delay_unit/in VGND VGND
+ VPWR sky130_mm_sc_hd_dlyPoly5ns
XFILLER_11_288 VGND VPWR VGND VPWR sky130_ef_sc_hd__decap_12
XFILLER_3_273 VGND VPWR VGND VPWR sky130_ef_sc_hd__decap_12
XFILLER_0_265 VGND VPWR VGND VPWR sky130_ef_sc_hd__decap_12
XFILLER_0_232 VGND VPWR VGND VPWR sky130_fd_sc_hd__decap_4
Xedgedetect.dly_315ns_1.genblk1\[4\].dly_binary.genblk1\[3\].delay_unit VPWR edgedetect.dly_315ns_1.genblk1\[4\].dly_binary.genblk1\[3\].delay_unit/in
+ edgedetect.dly_315ns_1.genblk1\[4\].dly_binary.genblk1\[4\].delay_unit/in VGND VGND
+ VPWR sky130_mm_sc_hd_dlyPoly5ns
XFILLER_13_136 VGND VPWR VGND VPWR sky130_fd_sc_hd__decap_4
XFILLER_9_129 VGND VPWR VGND VPWR sky130_fd_sc_hd__decap_4
Xclkgen.delay_155ns_2.genblk1\[4\].dly_binary.genblk1\[5\].delay_unit VPWR clkgen.delay_155ns_2.genblk1\[4\].dly_binary.genblk1\[5\].delay_unit/in
+ clkgen.delay_155ns_2.genblk1\[4\].dly_binary.genblk1\[6\].delay_unit/in VGND VGND
+ VPWR sky130_mm_sc_hd_dlyPoly5ns
XFILLER_8_195 VGND VPWR VGND VPWR sky130_fd_sc_hd__decap_4
XFILLER_12_57 VGND VPWR VGND VPWR sky130_fd_sc_hd__decap_4
XFILLER_2_316 VGND VPWR VGND VPWR sky130_fd_sc_hd__decap_4
XFILLER_18_206 VGND VPWR VGND VPWR sky130_fd_sc_hd__decap_4
Xclkgen.delay_155ns_3.genblk1\[3\].dly_binary.genblk1\[1\].delay_unit VPWR clkgen.delay_155ns_3.genblk1\[3\].dly_binary.genblk1\[1\].delay_unit/in
+ clkgen.delay_155ns_3.genblk1\[3\].dly_binary.genblk1\[2\].delay_unit/in VGND VGND
+ VPWR sky130_mm_sc_hd_dlyPoly5ns
XANTENNA_clkgen.delay_155ns_2.genblk1\[2\].bypass_enable_B dlycontrol2_in[2] VGND
+ VPWR VPWR VGND sky130_fd_sc_hd__diode_2
XFILLER_2_102 VPWR VGND VGND VPWR sky130_fd_sc_hd__decap_6
XFILLER_14_253 VGND VPWR VGND VPWR sky130_fd_sc_hd__decap_4
XFILLER_20_245 VPWR VGND VGND VPWR sky130_fd_sc_hd__decap_3
Xedgedetect.dly_315ns_1.genblk1\[5\].dly_binary.genblk1\[10\].delay_unit VPWR edgedetect.dly_315ns_1.genblk1\[5\].dly_binary.genblk1\[9\].delay_unit/out
+ edgedetect.dly_315ns_1.genblk1\[5\].dly_binary.genblk1\[11\].delay_unit/in VGND
+ VGND VPWR sky130_mm_sc_hd_dlyPoly5ns
Xclkgen.delay_155ns_3.genblk1\[4\].dly_binary.genblk1\[10\].delay_unit VPWR clkgen.delay_155ns_3.genblk1\[4\].dly_binary.genblk1\[9\].delay_unit/out
+ clkgen.delay_155ns_3.genblk1\[4\].dly_binary.genblk1\[11\].delay_unit/in VGND VGND
+ VPWR sky130_mm_sc_hd_dlyPoly5ns
Xedgedetect.dly_315ns_1.genblk1\[4\].dly_binary.genblk1\[8\].delay_unit VPWR edgedetect.dly_315ns_1.genblk1\[4\].dly_binary.genblk1\[8\].delay_unit/in
+ edgedetect.dly_315ns_1.genblk1\[4\].dly_binary.genblk1\[9\].delay_unit/in VGND VGND
+ VPWR sky130_mm_sc_hd_dlyPoly5ns
XFILLER_1_81 VPWR VGND VGND VPWR sky130_fd_sc_hd__decap_8
XANTENNA_edgedetect.dly_315ns_1.genblk1\[5\].bypass_enable_A edgedetect.dly_315ns_1.enablebuffer/X
+ VGND VPWR VPWR VGND sky130_fd_sc_hd__diode_2
XFILLER_10_90 VPWR VGND VGND VPWR sky130_fd_sc_hd__decap_3
XFILLER_3_285 VGND VPWR VGND VPWR sky130_ef_sc_hd__decap_12
Xedgedetect.dly_315ns_1.genblk1\[4\].dly_binary.genblk1\[11\].delay_unit VPWR edgedetect.dly_315ns_1.genblk1\[4\].dly_binary.genblk1\[11\].delay_unit/in
+ edgedetect.dly_315ns_1.genblk1\[4\].dly_binary.genblk1\[12\].delay_unit/in VGND
+ VGND VPWR sky130_mm_sc_hd_dlyPoly5ns
Xclkgen.delay_155ns_3.genblk1\[3\].dly_binary.genblk1\[6\].delay_unit VPWR clkgen.delay_155ns_3.genblk1\[3\].dly_binary.genblk1\[6\].delay_unit/in
+ clkgen.delay_155ns_3.genblk1\[3\].dly_binary.genblk1\[7\].delay_unit/in VGND VGND
+ VPWR sky130_mm_sc_hd_dlyPoly5ns
XFILLER_0_244 VGND VPWR VGND VPWR sky130_fd_sc_hd__decap_4
XFILLER_11_3 VPWR VGND VGND VPWR sky130_fd_sc_hd__decap_3
Xclkgen.delay_155ns_1.genblk1\[4\].dly_binary.genblk1\[4\].delay_unit VPWR clkgen.delay_155ns_1.genblk1\[4\].dly_binary.genblk1\[4\].delay_unit/in
+ clkgen.delay_155ns_1.genblk1\[4\].dly_binary.genblk1\[5\].delay_unit/in VGND VGND
+ VPWR sky130_mm_sc_hd_dlyPoly5ns
XANTENNA_edgedetect.dly_315ns_1.genblk1\[3\].dly_binary.and_bypass_switch_A_N edgedetect.dly_315ns_1.genblk1\[3\].bypass_enable/X
+ VGND VPWR VPWR VGND sky130_fd_sc_hd__diode_2
Xclkgen.delay_155ns_2.genblk1\[3\].dly_binary.genblk1\[0\].delay_unit VPWR clkgen.delay_155ns_2.genblk1\[3\].dly_binary.and_bypass_switch/X
+ clkgen.delay_155ns_2.genblk1\[3\].dly_binary.genblk1\[1\].delay_unit/in VGND VGND
+ VPWR sky130_mm_sc_hd_dlyPoly5ns
XFILLER_8_163 VPWR VGND VGND VPWR sky130_fd_sc_hd__decap_6
Xedgedetect.dly_315ns_1.genblk1\[5\].dly_binary.genblk1\[15\].delay_unit VPWR edgedetect.dly_315ns_1.genblk1\[5\].dly_binary.genblk1\[15\].delay_unit/in
+ edgedetect.dly_315ns_1.genblk1\[5\].dly_binary.genblk1\[16\].delay_unit/in VGND
+ VGND VPWR sky130_mm_sc_hd_dlyPoly5ns
Xclkgen.delay_155ns_3.genblk1\[4\].dly_binary.genblk1\[15\].delay_unit VPWR clkgen.delay_155ns_3.genblk1\[4\].dly_binary.genblk1\[15\].delay_unit/in
+ clkgen.delay_155ns_3.genblk1\[4\].dly_binary.out_mux/A0 VGND VGND VPWR sky130_mm_sc_hd_dlyPoly5ns
XANTENNA_clkgen.delay_155ns_1.genblk1\[0\].bypass_enable_B dlycontrol1_in[0] VGND
+ VPWR VPWR VGND sky130_fd_sc_hd__diode_2
XFILLER_2_114 VGND VPWR VGND VPWR sky130_fd_sc_hd__decap_4
XFILLER_14_265 VGND VPWR VGND VPWR sky130_fd_sc_hd__decap_4
Xclkgen.nor1 clkgen.nor1/B_N clkgen.nor1/Y clkgen.nor1/A VGND VPWR VGND VPWR sky130_fd_sc_hd__nor2b_1
XFILLER_0_28 VPWR VGND VGND VPWR sky130_fd_sc_hd__decap_3
Xclkgen.delay_155ns_1.genblk1\[4\].dly_binary.genblk1\[9\].delay_unit VPWR clkgen.delay_155ns_1.genblk1\[4\].dly_binary.genblk1\[9\].delay_unit/in
+ clkgen.delay_155ns_1.genblk1\[4\].dly_binary.genblk1\[9\].delay_unit/out VGND VGND
+ VPWR sky130_mm_sc_hd_dlyPoly5ns
Xedgedetect.dly_315ns_1.genblk1\[3\].dly_binary.genblk1\[3\].delay_unit VPWR edgedetect.dly_315ns_1.genblk1\[3\].dly_binary.genblk1\[3\].delay_unit/in
+ edgedetect.dly_315ns_1.genblk1\[3\].dly_binary.genblk1\[4\].delay_unit/in VGND VGND
+ VPWR sky130_mm_sc_hd_dlyPoly5ns
XFILLER_1_71 VGND VPWR VGND VPWR sky130_fd_sc_hd__decap_4
XANTENNA_edgedetect.dly_315ns_1.genblk1\[5\].bypass_enable_B dlycontrol4_in[5] VGND
+ VPWR VPWR VGND sky130_fd_sc_hd__diode_2
XFILLER_6_16 VGND VPWR VGND VPWR sky130_fd_sc_hd__decap_4
Xclkgen.delay_155ns_2.genblk1\[3\].dly_binary.genblk1\[5\].delay_unit VPWR clkgen.delay_155ns_2.genblk1\[3\].dly_binary.genblk1\[5\].delay_unit/in
+ clkgen.delay_155ns_2.genblk1\[3\].dly_binary.genblk1\[6\].delay_unit/in VGND VGND
+ VPWR sky130_mm_sc_hd_dlyPoly5ns
XFILLER_19_187 VPWR VGND VGND VPWR sky130_fd_sc_hd__decap_6
XFILLER_10_80 VGND VPWR VGND VPWR sky130_fd_sc_hd__decap_4
XFILLER_3_297 VGND VPWR VGND VPWR sky130_ef_sc_hd__decap_12
XFILLER_15_58 VGND VPWR VGND VPWR sky130_fd_sc_hd__decap_4
Xclkgen.delay_155ns_3.genblk1\[2\].dly_binary.genblk1\[1\].delay_unit VPWR clkgen.delay_155ns_3.genblk1\[2\].dly_binary.genblk1\[1\].delay_unit/in
+ clkgen.delay_155ns_3.genblk1\[2\].dly_binary.genblk1\[2\].delay_unit/in VGND VGND
+ VPWR sky130_mm_sc_hd_dlyPoly5ns
XFILLER_16_124 VGND VPWR VGND VPWR sky130_fd_sc_hd__decap_4
Xedgedetect.dly_315ns_1.genblk1\[5\].dly_binary.genblk1\[22\].delay_unit VPWR edgedetect.dly_315ns_1.genblk1\[5\].dly_binary.genblk1\[22\].delay_unit/in
+ edgedetect.dly_315ns_1.genblk1\[5\].dly_binary.genblk1\[23\].delay_unit/in VGND
+ VGND VPWR sky130_mm_sc_hd_dlyPoly5ns
XFILLER_12_37 VGND VPWR VGND VPWR sky130_fd_sc_hd__decap_4
XANTENNA_edgedetect.dly_315ns_1.enablebuffer_A enable_dlycontrol_in VGND VPWR VPWR
+ VGND sky130_fd_sc_hd__diode_2
XANTENNA_outbuf_4_A sample_n_in VGND VPWR VPWR VGND sky130_fd_sc_hd__diode_2
XFILLER_5_178 VGND VPWR VGND VPWR sky130_fd_sc_hd__decap_4
XFILLER_14_222 VPWR VGND VGND VPWR sky130_fd_sc_hd__decap_6
XFILLER_14_200 VGND VPWR VGND VPWR sky130_fd_sc_hd__decap_4
XFILLER_20_214 VPWR VGND VGND VPWR sky130_fd_sc_hd__decap_3
Xedgedetect.dly_315ns_1.genblk1\[5\].dly_binary.genblk1\[27\].delay_unit VPWR edgedetect.dly_315ns_1.genblk1\[5\].dly_binary.genblk1\[27\].delay_unit/in
+ edgedetect.dly_315ns_1.genblk1\[5\].dly_binary.genblk1\[28\].delay_unit/in VGND
+ VGND VPWR sky130_mm_sc_hd_dlyPoly5ns
XANTENNA_clkgen.delay_155ns_2.enablebuffer_A enable_dlycontrol_in VGND VPWR VPWR VGND
+ sky130_fd_sc_hd__diode_2
Xclkgen.delay_155ns_1.genblk1\[3\].dly_binary.genblk1\[4\].delay_unit VPWR clkgen.delay_155ns_1.genblk1\[3\].dly_binary.genblk1\[4\].delay_unit/in
+ clkgen.delay_155ns_1.genblk1\[3\].dly_binary.genblk1\[5\].delay_unit/in VGND VGND
+ VPWR sky130_mm_sc_hd_dlyPoly5ns
XFILLER_1_3 VPWR VGND VGND VPWR sky130_fd_sc_hd__decap_3
XANTENNA_inbuf_3_A ndecision_finish_in VGND VPWR VPWR VGND sky130_fd_sc_hd__diode_2
Xclkgen.delay_155ns_2.genblk1\[2\].dly_binary.genblk1\[0\].delay_unit VPWR clkgen.delay_155ns_2.genblk1\[2\].dly_binary.and_bypass_switch/X
+ clkgen.delay_155ns_2.genblk1\[2\].dly_binary.genblk1\[1\].delay_unit/in VGND VGND
+ VPWR sky130_mm_sc_hd_dlyPoly5ns
XFILLER_19_155 VGND VPWR VGND VPWR sky130_fd_sc_hd__decap_4
XFILLER_19_90 VPWR VGND VGND VPWR sky130_fd_sc_hd__decap_6
Xclkgen.clkdig_inverter clkgen.clkdig_inverter/A outbuf_1/A VPWR VGND VGND VPWR sky130_fd_sc_hd__inv_2
XFILLER_10_70 VGND VPWR VGND VPWR sky130_fd_sc_hd__decap_4
XFILLER_3_243 VGND VPWR VGND VPWR sky130_fd_sc_hd__decap_4
XPHY_0 VPWR VGND VGND VPWR sky130_fd_sc_hd__decap_3
XFILLER_7_93 VGND VPWR VGND VPWR sky130_fd_sc_hd__decap_4
XFILLER_12_172 VPWR VGND VGND VPWR sky130_fd_sc_hd__decap_6
XFILLER_8_121 VPWR VGND VGND VPWR sky130_fd_sc_hd__decap_6
XFILLER_12_16 VGND VPWR VGND VPWR sky130_fd_sc_hd__decap_4
Xedgedetect.dly_315ns_1.genblk1\[2\].dly_binary.genblk1\[3\].delay_unit VPWR edgedetect.dly_315ns_1.genblk1\[2\].dly_binary.genblk1\[3\].delay_unit/in
+ edgedetect.dly_315ns_1.genblk1\[2\].dly_binary.out_mux/A0 VGND VGND VPWR sky130_mm_sc_hd_dlyPoly5ns
XFILLER_14_212 VGND VPWR VGND VPWR sky130_fd_sc_hd__decap_4
Xclkgen.delay_155ns_3.genblk1\[1\].dly_binary.genblk1\[1\].delay_unit VPWR clkgen.delay_155ns_3.genblk1\[1\].dly_binary.genblk1\[1\].delay_unit/in
+ clkgen.delay_155ns_3.genblk1\[1\].dly_binary.out_mux/A0 VGND VGND VPWR sky130_mm_sc_hd_dlyPoly5ns
XFILLER_11_259 VGND VPWR VGND VPWR sky130_fd_sc_hd__decap_4
XFILLER_19_315 VGND VPWR VGND VPWR sky130_fd_sc_hd__decap_4
XFILLER_6_274 VGND VPWR VGND VPWR sky130_fd_sc_hd__decap_4
XFILLER_20_16 VGND VPWR VGND VPWR sky130_fd_sc_hd__decap_4
XFILLER_16_307 VGND VPWR VGND VPWR sky130_fd_sc_hd__decap_4
XFILLER_15_16 VGND VPWR VGND VPWR sky130_fd_sc_hd__decap_4
XFILLER_0_214 VPWR VGND VGND VPWR sky130_fd_sc_hd__decap_3
Xedgedetect.dly_315ns_1.genblk1\[0\].dly_binary.out_mux VGND VPWR edgedetect.dly_315ns_1.genblk1\[0\].bypass_enable/X
+ inbuf_2/X edgedetect.dly_315ns_1.genblk1\[0\].dly_binary.out_mux/A0 edgedetect.dly_315ns_1.genblk1\[0\].dly_binary.out_mux/X
+ VGND VPWR sky130_fd_sc_hd__mux2_1
XPHY_1 VPWR VGND VGND VPWR sky130_fd_sc_hd__decap_3
Xedgedetect.dly_315ns_1.genblk1\[2\].dly_binary.out_mux VGND VPWR edgedetect.dly_315ns_1.genblk1\[2\].bypass_enable/X
+ edgedetect.dly_315ns_1.genblk1\[1\].dly_binary.out_mux/X edgedetect.dly_315ns_1.genblk1\[2\].dly_binary.out_mux/A0
+ edgedetect.dly_315ns_1.genblk1\[2\].dly_binary.out_mux/X VGND VPWR sky130_fd_sc_hd__mux2_1
XANTENNA_edgedetect.dly_315ns_1.genblk1\[0\].bypass_enable_A edgedetect.dly_315ns_1.enablebuffer/X
+ VGND VPWR VPWR VGND sky130_fd_sc_hd__diode_2
Xedgedetect.dly_315ns_1.genblk1\[0\].dly_binary.and_bypass_switch edgedetect.dly_315ns_1.genblk1\[0\].dly_binary.and_bypass_switch/X
+ edgedetect.dly_315ns_1.genblk1\[0\].bypass_enable/X inbuf_2/X VGND VPWR VGND VPWR
+ sky130_fd_sc_hd__and2b_1
Xinbuf_1 VGND VPWR inbuf_1/X ena_in VGND VPWR sky130_fd_sc_hd__buf_1
Xedgedetect.dly_315ns_1.genblk1\[4\].dly_binary.out_mux VGND VPWR edgedetect.dly_315ns_1.genblk1\[4\].bypass_enable/X
+ edgedetect.dly_315ns_1.genblk1\[3\].dly_binary.out_mux/X edgedetect.dly_315ns_1.genblk1\[4\].dly_binary.out_mux/A0
+ edgedetect.dly_315ns_1.genblk1\[4\].dly_binary.out_mux/X VGND VPWR sky130_fd_sc_hd__mux2_1
XFILLER_5_125 VGND VPWR VGND VPWR sky130_fd_sc_hd__decap_4
XFILLER_5_169 VGND VPWR VGND VPWR sky130_fd_sc_hd__decap_4
XFILLER_17_276 VGND VPWR VGND VPWR sky130_fd_sc_hd__decap_4
XFILLER_17_243 VGND VPWR VGND VPWR sky130_fd_sc_hd__decap_4
XFILLER_4_62 VGND VPWR VGND VPWR sky130_fd_sc_hd__decap_4
Xclkgen.delay_155ns_2.genblk1\[1\].dly_binary.genblk1\[0\].delay_unit VPWR clkgen.delay_155ns_2.genblk1\[1\].dly_binary.and_bypass_switch/X
+ clkgen.delay_155ns_2.genblk1\[1\].dly_binary.genblk1\[1\].delay_unit/in VGND VGND
+ VPWR sky130_mm_sc_hd_dlyPoly5ns
XFILLER_13_93 VGND VPWR VGND VPWR sky130_fd_sc_hd__decap_4
XFILLER_1_183 VPWR VGND VGND VPWR sky130_fd_sc_hd__decap_3
XFILLER_18_16 VGND VPWR VGND VPWR sky130_fd_sc_hd__decap_4
XFILLER_19_305 VGND VPWR VGND VPWR sky130_fd_sc_hd__decap_4
Xedgedetect.dly_315ns_1.genblk1\[2\].bypass_enable VPWR VGND edgedetect.dly_315ns_1.genblk1\[2\].bypass_enable/X
+ dlycontrol4_in[2] edgedetect.dly_315ns_1.enablebuffer/X VGND VPWR sky130_fd_sc_hd__and2_1
Xclkgen.delay_155ns_1.genblk1\[4\].dly_binary.genblk1\[10\].delay_unit VPWR clkgen.delay_155ns_1.genblk1\[4\].dly_binary.genblk1\[9\].delay_unit/out
+ clkgen.delay_155ns_1.genblk1\[4\].dly_binary.genblk1\[11\].delay_unit/in VGND VGND
+ VPWR sky130_mm_sc_hd_dlyPoly5ns
XFILLER_0_226 VGND VPWR VGND VPWR sky130_fd_sc_hd__decap_4
XFILLER_15_193 VGND VPWR VGND VPWR sky130_fd_sc_hd__decap_4
XPHY_2 VPWR VGND VGND VPWR sky130_fd_sc_hd__decap_3
Xclkgen.delay_155ns_1.genblk1\[3\].bypass_enable VPWR VGND clkgen.delay_155ns_1.genblk1\[3\].bypass_enable/X
+ dlycontrol1_in[3] clkgen.delay_155ns_1.enablebuffer/X VGND VPWR sky130_fd_sc_hd__and2_1
XANTENNA_edgedetect.dly_315ns_1.genblk1\[0\].bypass_enable_B dlycontrol4_in[0] VGND
+ VPWR VPWR VGND sky130_fd_sc_hd__diode_2
Xclkgen.delay_155ns_2.genblk1\[4\].bypass_enable VPWR VGND clkgen.delay_155ns_2.genblk1\[4\].bypass_enable/X